
---------- Begin Simulation Statistics ----------
simSeconds                                   0.016294                       # Number of seconds simulated (Second)
simTicks                                  16294367322                       # Number of ticks simulated (Tick)
finalTick                                 16294367322                       # Number of ticks from beginning of simulation (restored from checkpoints and never reset) (Tick)
simFreq                                  1000000000000                       # The number of ticks per simulated second ((Tick/Second))
hostSeconds                                    985.32                       # Real time elapsed on the host (Second)
hostTickRate                                 16537175                       # The number of ticks simulated per host second (ticks/s) ((Tick/Second))
hostMemory                                   77590076                       # Number of bytes of host memory used (Byte)
simInsts                                      6444945                       # Number of instructions simulated (Count)
simOps                                       12421386                       # Number of ops (including micro ops) simulated (Count)
hostInstRate                                     6541                       # Simulator instruction rate (inst/s) ((Count/Second))
hostOpRate                                      12606                       # Simulator op (including micro ops) rate (op/s) ((Count/Second))
board.cache_hierarchy.cc_l3cache.demandHits::writebacks      1082307                       # number of demand (read+write) hits (Count)
board.cache_hierarchy.cc_l3cache.demandHits::functional      1027271                       # number of demand (read+write) hits (Count)
board.cache_hierarchy.cc_l3cache.demandHits::interrupt      1029136                       # number of demand (read+write) hits (Count)
board.cache_hierarchy.cc_l3cache.demandHits::cache_hierarchy.cc_l3cache.prefetcher      1028616                       # number of demand (read+write) hits (Count)
board.cache_hierarchy.cc_l3cache.demandHits::cache_hierarchy.l1dcaches0.prefetcher      1028736                       # number of demand (read+write) hits (Count)
board.cache_hierarchy.cc_l3cache.demandHits::cache_hierarchy.l1dcaches1.prefetcher      1023687                       # number of demand (read+write) hits (Count)
board.cache_hierarchy.cc_l3cache.demandHits::cache_hierarchy.l1dcaches2.prefetcher      1023466                       # number of demand (read+write) hits (Count)
board.cache_hierarchy.cc_l3cache.demandHits::cache_hierarchy.l1dcaches3.prefetcher      1026509                       # number of demand (read+write) hits (Count)
board.cache_hierarchy.cc_l3cache.demandHits::cache_hierarchy.l1dcaches4.prefetcher          225                       # number of demand (read+write) hits (Count)
board.cache_hierarchy.cc_l3cache.demandHits::cache_hierarchy.l1dcaches5.prefetcher          214                       # number of demand (read+write) hits (Count)
board.cache_hierarchy.cc_l3cache.demandHits::cache_hierarchy.l1dcaches6.prefetcher          199                       # number of demand (read+write) hits (Count)
board.cache_hierarchy.cc_l3cache.demandHits::cache_hierarchy.l1dcaches7.prefetcher          242                       # number of demand (read+write) hits (Count)
board.cache_hierarchy.cc_l3cache.demandHits::cache_hierarchy.l2cache.prefetcher          526                       # number of demand (read+write) hits (Count)
board.cache_hierarchy.cc_l3cache.demandHits::processor.cores0.core.data          247                       # number of demand (read+write) hits (Count)
board.cache_hierarchy.cc_l3cache.demandHits::processor.cores1.core.data          261                       # number of demand (read+write) hits (Count)
board.cache_hierarchy.cc_l3cache.demandHits::processor.cores2.core.data          243                       # number of demand (read+write) hits (Count)
board.cache_hierarchy.cc_l3cache.demandHits::processor.cores3.core.data          247                       # number of demand (read+write) hits (Count)
board.cache_hierarchy.cc_l3cache.demandHits::processor.cores4.core.data          252                       # number of demand (read+write) hits (Count)
board.cache_hierarchy.cc_l3cache.demandHits::processor.cores5.core.data          257                       # number of demand (read+write) hits (Count)
board.cache_hierarchy.cc_l3cache.demandHits::processor.cores6.core.data          273                       # number of demand (read+write) hits (Count)
board.cache_hierarchy.cc_l3cache.demandHits::processor.cores7.core.data          233                       # number of demand (read+write) hits (Count)
board.cache_hierarchy.cc_l3cache.demandHits::total      8273147                       # number of demand (read+write) hits (Count)
board.cache_hierarchy.cc_l3cache.overallHits::writebacks      1082307                       # number of overall hits (Count)
board.cache_hierarchy.cc_l3cache.overallHits::functional      1027271                       # number of overall hits (Count)
board.cache_hierarchy.cc_l3cache.overallHits::interrupt      1029136                       # number of overall hits (Count)
board.cache_hierarchy.cc_l3cache.overallHits::cache_hierarchy.cc_l3cache.prefetcher      1028616                       # number of overall hits (Count)
board.cache_hierarchy.cc_l3cache.overallHits::cache_hierarchy.l1dcaches0.prefetcher      1028736                       # number of overall hits (Count)
board.cache_hierarchy.cc_l3cache.overallHits::cache_hierarchy.l1dcaches1.prefetcher      1023687                       # number of overall hits (Count)
board.cache_hierarchy.cc_l3cache.overallHits::cache_hierarchy.l1dcaches2.prefetcher      1023466                       # number of overall hits (Count)
board.cache_hierarchy.cc_l3cache.overallHits::cache_hierarchy.l1dcaches3.prefetcher      1026509                       # number of overall hits (Count)
board.cache_hierarchy.cc_l3cache.overallHits::cache_hierarchy.l1dcaches4.prefetcher          225                       # number of overall hits (Count)
board.cache_hierarchy.cc_l3cache.overallHits::cache_hierarchy.l1dcaches5.prefetcher          214                       # number of overall hits (Count)
board.cache_hierarchy.cc_l3cache.overallHits::cache_hierarchy.l1dcaches6.prefetcher          199                       # number of overall hits (Count)
board.cache_hierarchy.cc_l3cache.overallHits::cache_hierarchy.l1dcaches7.prefetcher          242                       # number of overall hits (Count)
board.cache_hierarchy.cc_l3cache.overallHits::cache_hierarchy.l2cache.prefetcher          526                       # number of overall hits (Count)
board.cache_hierarchy.cc_l3cache.overallHits::processor.cores0.core.data          247                       # number of overall hits (Count)
board.cache_hierarchy.cc_l3cache.overallHits::processor.cores1.core.data          261                       # number of overall hits (Count)
board.cache_hierarchy.cc_l3cache.overallHits::processor.cores2.core.data          243                       # number of overall hits (Count)
board.cache_hierarchy.cc_l3cache.overallHits::processor.cores3.core.data          247                       # number of overall hits (Count)
board.cache_hierarchy.cc_l3cache.overallHits::processor.cores4.core.data          252                       # number of overall hits (Count)
board.cache_hierarchy.cc_l3cache.overallHits::processor.cores5.core.data          257                       # number of overall hits (Count)
board.cache_hierarchy.cc_l3cache.overallHits::processor.cores6.core.data          273                       # number of overall hits (Count)
board.cache_hierarchy.cc_l3cache.overallHits::processor.cores7.core.data          233                       # number of overall hits (Count)
board.cache_hierarchy.cc_l3cache.overallHits::total      8273147                       # number of overall hits (Count)
board.cache_hierarchy.cc_l3cache.demandMisses::cache_hierarchy.l1dcaches0.prefetcher        51365                       # number of demand (read+write) misses (Count)
board.cache_hierarchy.cc_l3cache.demandMisses::cache_hierarchy.l1dcaches1.prefetcher        50665                       # number of demand (read+write) misses (Count)
board.cache_hierarchy.cc_l3cache.demandMisses::cache_hierarchy.l1dcaches2.prefetcher        51204                       # number of demand (read+write) misses (Count)
board.cache_hierarchy.cc_l3cache.demandMisses::cache_hierarchy.l1dcaches3.prefetcher        51123                       # number of demand (read+write) misses (Count)
board.cache_hierarchy.cc_l3cache.demandMisses::cache_hierarchy.l1dcaches4.prefetcher        51276                       # number of demand (read+write) misses (Count)
board.cache_hierarchy.cc_l3cache.demandMisses::cache_hierarchy.l1dcaches5.prefetcher        50649                       # number of demand (read+write) misses (Count)
board.cache_hierarchy.cc_l3cache.demandMisses::cache_hierarchy.l1dcaches6.prefetcher        50788                       # number of demand (read+write) misses (Count)
board.cache_hierarchy.cc_l3cache.demandMisses::cache_hierarchy.l1dcaches7.prefetcher        50799                       # number of demand (read+write) misses (Count)
board.cache_hierarchy.cc_l3cache.demandMisses::cache_hierarchy.l2cache.prefetcher        26793                       # number of demand (read+write) misses (Count)
board.cache_hierarchy.cc_l3cache.demandMisses::processor.cores0.core.inst         1209                       # number of demand (read+write) misses (Count)
board.cache_hierarchy.cc_l3cache.demandMisses::processor.cores0.core.data        74648                       # number of demand (read+write) misses (Count)
board.cache_hierarchy.cc_l3cache.demandMisses::processor.cores1.core.inst           40                       # number of demand (read+write) misses (Count)
board.cache_hierarchy.cc_l3cache.demandMisses::processor.cores1.core.data        73481                       # number of demand (read+write) misses (Count)
board.cache_hierarchy.cc_l3cache.demandMisses::processor.cores2.core.inst            4                       # number of demand (read+write) misses (Count)
board.cache_hierarchy.cc_l3cache.demandMisses::processor.cores2.core.data        73327                       # number of demand (read+write) misses (Count)
board.cache_hierarchy.cc_l3cache.demandMisses::processor.cores3.core.inst            3                       # number of demand (read+write) misses (Count)
board.cache_hierarchy.cc_l3cache.demandMisses::processor.cores3.core.data        73242                       # number of demand (read+write) misses (Count)
board.cache_hierarchy.cc_l3cache.demandMisses::processor.cores4.core.data        73291                       # number of demand (read+write) misses (Count)
board.cache_hierarchy.cc_l3cache.demandMisses::processor.cores5.core.data        73546                       # number of demand (read+write) misses (Count)
board.cache_hierarchy.cc_l3cache.demandMisses::processor.cores6.core.data        73282                       # number of demand (read+write) misses (Count)
board.cache_hierarchy.cc_l3cache.demandMisses::processor.cores7.core.inst            5                       # number of demand (read+write) misses (Count)
board.cache_hierarchy.cc_l3cache.demandMisses::processor.cores7.core.data        73449                       # number of demand (read+write) misses (Count)
board.cache_hierarchy.cc_l3cache.demandMisses::total      1024189                       # number of demand (read+write) misses (Count)
board.cache_hierarchy.cc_l3cache.overallMisses::cache_hierarchy.l1dcaches0.prefetcher        51365                       # number of overall misses (Count)
board.cache_hierarchy.cc_l3cache.overallMisses::cache_hierarchy.l1dcaches1.prefetcher        50665                       # number of overall misses (Count)
board.cache_hierarchy.cc_l3cache.overallMisses::cache_hierarchy.l1dcaches2.prefetcher        51204                       # number of overall misses (Count)
board.cache_hierarchy.cc_l3cache.overallMisses::cache_hierarchy.l1dcaches3.prefetcher        51123                       # number of overall misses (Count)
board.cache_hierarchy.cc_l3cache.overallMisses::cache_hierarchy.l1dcaches4.prefetcher        51276                       # number of overall misses (Count)
board.cache_hierarchy.cc_l3cache.overallMisses::cache_hierarchy.l1dcaches5.prefetcher        50649                       # number of overall misses (Count)
board.cache_hierarchy.cc_l3cache.overallMisses::cache_hierarchy.l1dcaches6.prefetcher        50788                       # number of overall misses (Count)
board.cache_hierarchy.cc_l3cache.overallMisses::cache_hierarchy.l1dcaches7.prefetcher        50799                       # number of overall misses (Count)
board.cache_hierarchy.cc_l3cache.overallMisses::cache_hierarchy.l2cache.prefetcher        26793                       # number of overall misses (Count)
board.cache_hierarchy.cc_l3cache.overallMisses::processor.cores0.core.inst         1209                       # number of overall misses (Count)
board.cache_hierarchy.cc_l3cache.overallMisses::processor.cores0.core.data        74648                       # number of overall misses (Count)
board.cache_hierarchy.cc_l3cache.overallMisses::processor.cores1.core.inst           40                       # number of overall misses (Count)
board.cache_hierarchy.cc_l3cache.overallMisses::processor.cores1.core.data        73481                       # number of overall misses (Count)
board.cache_hierarchy.cc_l3cache.overallMisses::processor.cores2.core.inst            4                       # number of overall misses (Count)
board.cache_hierarchy.cc_l3cache.overallMisses::processor.cores2.core.data        73327                       # number of overall misses (Count)
board.cache_hierarchy.cc_l3cache.overallMisses::processor.cores3.core.inst            3                       # number of overall misses (Count)
board.cache_hierarchy.cc_l3cache.overallMisses::processor.cores3.core.data        73242                       # number of overall misses (Count)
board.cache_hierarchy.cc_l3cache.overallMisses::processor.cores4.core.data        73291                       # number of overall misses (Count)
board.cache_hierarchy.cc_l3cache.overallMisses::processor.cores5.core.data        73546                       # number of overall misses (Count)
board.cache_hierarchy.cc_l3cache.overallMisses::processor.cores6.core.data        73282                       # number of overall misses (Count)
board.cache_hierarchy.cc_l3cache.overallMisses::processor.cores7.core.inst            5                       # number of overall misses (Count)
board.cache_hierarchy.cc_l3cache.overallMisses::processor.cores7.core.data        73449                       # number of overall misses (Count)
board.cache_hierarchy.cc_l3cache.overallMisses::total      1024189                       # number of overall misses (Count)
board.cache_hierarchy.cc_l3cache.demandMissLatency::cache_hierarchy.l1dcaches0.prefetcher  10226265061                       # number of demand (read+write) miss ticks (Tick)
board.cache_hierarchy.cc_l3cache.demandMissLatency::cache_hierarchy.l1dcaches1.prefetcher  10106008542                       # number of demand (read+write) miss ticks (Tick)
board.cache_hierarchy.cc_l3cache.demandMissLatency::cache_hierarchy.l1dcaches2.prefetcher  10192488967                       # number of demand (read+write) miss ticks (Tick)
board.cache_hierarchy.cc_l3cache.demandMissLatency::cache_hierarchy.l1dcaches3.prefetcher  10210767328                       # number of demand (read+write) miss ticks (Tick)
board.cache_hierarchy.cc_l3cache.demandMissLatency::cache_hierarchy.l1dcaches4.prefetcher  10208307253                       # number of demand (read+write) miss ticks (Tick)
board.cache_hierarchy.cc_l3cache.demandMissLatency::cache_hierarchy.l1dcaches5.prefetcher  10157585086                       # number of demand (read+write) miss ticks (Tick)
board.cache_hierarchy.cc_l3cache.demandMissLatency::cache_hierarchy.l1dcaches6.prefetcher  10118971309                       # number of demand (read+write) miss ticks (Tick)
board.cache_hierarchy.cc_l3cache.demandMissLatency::cache_hierarchy.l1dcaches7.prefetcher  10144178996                       # number of demand (read+write) miss ticks (Tick)
board.cache_hierarchy.cc_l3cache.demandMissLatency::cache_hierarchy.l2cache.prefetcher   4880540168                       # number of demand (read+write) miss ticks (Tick)
board.cache_hierarchy.cc_l3cache.demandMissLatency::processor.cores0.core.inst     65999268                       # number of demand (read+write) miss ticks (Tick)
board.cache_hierarchy.cc_l3cache.demandMissLatency::processor.cores0.core.data  12718777453                       # number of demand (read+write) miss ticks (Tick)
board.cache_hierarchy.cc_l3cache.demandMissLatency::processor.cores1.core.inst      2611719                       # number of demand (read+write) miss ticks (Tick)
board.cache_hierarchy.cc_l3cache.demandMissLatency::processor.cores1.core.data  12662147776                       # number of demand (read+write) miss ticks (Tick)
board.cache_hierarchy.cc_l3cache.demandMissLatency::processor.cores2.core.inst       202131                       # number of demand (read+write) miss ticks (Tick)
board.cache_hierarchy.cc_l3cache.demandMissLatency::processor.cores2.core.data  12652260816                       # number of demand (read+write) miss ticks (Tick)
board.cache_hierarchy.cc_l3cache.demandMissLatency::processor.cores3.core.inst       156510                       # number of demand (read+write) miss ticks (Tick)
board.cache_hierarchy.cc_l3cache.demandMissLatency::processor.cores3.core.data  12642746870                       # number of demand (read+write) miss ticks (Tick)
board.cache_hierarchy.cc_l3cache.demandMissLatency::processor.cores4.core.data  12648209551                       # number of demand (read+write) miss ticks (Tick)
board.cache_hierarchy.cc_l3cache.demandMissLatency::processor.cores5.core.data  12662513274                       # number of demand (read+write) miss ticks (Tick)
board.cache_hierarchy.cc_l3cache.demandMissLatency::processor.cores6.core.data  12665008805                       # number of demand (read+write) miss ticks (Tick)
board.cache_hierarchy.cc_l3cache.demandMissLatency::processor.cores7.core.inst       300033                       # number of demand (read+write) miss ticks (Tick)
board.cache_hierarchy.cc_l3cache.demandMissLatency::processor.cores7.core.data  12648324255                       # number of demand (read+write) miss ticks (Tick)
board.cache_hierarchy.cc_l3cache.demandMissLatency::total 187614371171                       # number of demand (read+write) miss ticks (Tick)
board.cache_hierarchy.cc_l3cache.overallMissLatency::cache_hierarchy.l1dcaches0.prefetcher  10226265061                       # number of overall miss ticks (Tick)
board.cache_hierarchy.cc_l3cache.overallMissLatency::cache_hierarchy.l1dcaches1.prefetcher  10106008542                       # number of overall miss ticks (Tick)
board.cache_hierarchy.cc_l3cache.overallMissLatency::cache_hierarchy.l1dcaches2.prefetcher  10192488967                       # number of overall miss ticks (Tick)
board.cache_hierarchy.cc_l3cache.overallMissLatency::cache_hierarchy.l1dcaches3.prefetcher  10210767328                       # number of overall miss ticks (Tick)
board.cache_hierarchy.cc_l3cache.overallMissLatency::cache_hierarchy.l1dcaches4.prefetcher  10208307253                       # number of overall miss ticks (Tick)
board.cache_hierarchy.cc_l3cache.overallMissLatency::cache_hierarchy.l1dcaches5.prefetcher  10157585086                       # number of overall miss ticks (Tick)
board.cache_hierarchy.cc_l3cache.overallMissLatency::cache_hierarchy.l1dcaches6.prefetcher  10118971309                       # number of overall miss ticks (Tick)
board.cache_hierarchy.cc_l3cache.overallMissLatency::cache_hierarchy.l1dcaches7.prefetcher  10144178996                       # number of overall miss ticks (Tick)
board.cache_hierarchy.cc_l3cache.overallMissLatency::cache_hierarchy.l2cache.prefetcher   4880540168                       # number of overall miss ticks (Tick)
board.cache_hierarchy.cc_l3cache.overallMissLatency::processor.cores0.core.inst     65999268                       # number of overall miss ticks (Tick)
board.cache_hierarchy.cc_l3cache.overallMissLatency::processor.cores0.core.data  12718777453                       # number of overall miss ticks (Tick)
board.cache_hierarchy.cc_l3cache.overallMissLatency::processor.cores1.core.inst      2611719                       # number of overall miss ticks (Tick)
board.cache_hierarchy.cc_l3cache.overallMissLatency::processor.cores1.core.data  12662147776                       # number of overall miss ticks (Tick)
board.cache_hierarchy.cc_l3cache.overallMissLatency::processor.cores2.core.inst       202131                       # number of overall miss ticks (Tick)
board.cache_hierarchy.cc_l3cache.overallMissLatency::processor.cores2.core.data  12652260816                       # number of overall miss ticks (Tick)
board.cache_hierarchy.cc_l3cache.overallMissLatency::processor.cores3.core.inst       156510                       # number of overall miss ticks (Tick)
board.cache_hierarchy.cc_l3cache.overallMissLatency::processor.cores3.core.data  12642746870                       # number of overall miss ticks (Tick)
board.cache_hierarchy.cc_l3cache.overallMissLatency::processor.cores4.core.data  12648209551                       # number of overall miss ticks (Tick)
board.cache_hierarchy.cc_l3cache.overallMissLatency::processor.cores5.core.data  12662513274                       # number of overall miss ticks (Tick)
board.cache_hierarchy.cc_l3cache.overallMissLatency::processor.cores6.core.data  12665008805                       # number of overall miss ticks (Tick)
board.cache_hierarchy.cc_l3cache.overallMissLatency::processor.cores7.core.inst       300033                       # number of overall miss ticks (Tick)
board.cache_hierarchy.cc_l3cache.overallMissLatency::processor.cores7.core.data  12648324255                       # number of overall miss ticks (Tick)
board.cache_hierarchy.cc_l3cache.overallMissLatency::total 187614371171                       # number of overall miss ticks (Tick)
board.cache_hierarchy.cc_l3cache.demandAccesses::writebacks      1082307                       # number of demand (read+write) accesses (Count)
board.cache_hierarchy.cc_l3cache.demandAccesses::functional      1027271                       # number of demand (read+write) accesses (Count)
board.cache_hierarchy.cc_l3cache.demandAccesses::interrupt      1029136                       # number of demand (read+write) accesses (Count)
board.cache_hierarchy.cc_l3cache.demandAccesses::cache_hierarchy.cc_l3cache.prefetcher      1028616                       # number of demand (read+write) accesses (Count)
board.cache_hierarchy.cc_l3cache.demandAccesses::cache_hierarchy.l1dcaches0.prefetcher      1080101                       # number of demand (read+write) accesses (Count)
board.cache_hierarchy.cc_l3cache.demandAccesses::cache_hierarchy.l1dcaches1.prefetcher      1074352                       # number of demand (read+write) accesses (Count)
board.cache_hierarchy.cc_l3cache.demandAccesses::cache_hierarchy.l1dcaches2.prefetcher      1074670                       # number of demand (read+write) accesses (Count)
board.cache_hierarchy.cc_l3cache.demandAccesses::cache_hierarchy.l1dcaches3.prefetcher      1077632                       # number of demand (read+write) accesses (Count)
board.cache_hierarchy.cc_l3cache.demandAccesses::cache_hierarchy.l1dcaches4.prefetcher        51501                       # number of demand (read+write) accesses (Count)
board.cache_hierarchy.cc_l3cache.demandAccesses::cache_hierarchy.l1dcaches5.prefetcher        50863                       # number of demand (read+write) accesses (Count)
board.cache_hierarchy.cc_l3cache.demandAccesses::cache_hierarchy.l1dcaches6.prefetcher        50987                       # number of demand (read+write) accesses (Count)
board.cache_hierarchy.cc_l3cache.demandAccesses::cache_hierarchy.l1dcaches7.prefetcher        51041                       # number of demand (read+write) accesses (Count)
board.cache_hierarchy.cc_l3cache.demandAccesses::cache_hierarchy.l2cache.prefetcher        27319                       # number of demand (read+write) accesses (Count)
board.cache_hierarchy.cc_l3cache.demandAccesses::processor.cores0.core.inst         1209                       # number of demand (read+write) accesses (Count)
board.cache_hierarchy.cc_l3cache.demandAccesses::processor.cores0.core.data        74895                       # number of demand (read+write) accesses (Count)
board.cache_hierarchy.cc_l3cache.demandAccesses::processor.cores1.core.inst           40                       # number of demand (read+write) accesses (Count)
board.cache_hierarchy.cc_l3cache.demandAccesses::processor.cores1.core.data        73742                       # number of demand (read+write) accesses (Count)
board.cache_hierarchy.cc_l3cache.demandAccesses::processor.cores2.core.inst            4                       # number of demand (read+write) accesses (Count)
board.cache_hierarchy.cc_l3cache.demandAccesses::processor.cores2.core.data        73570                       # number of demand (read+write) accesses (Count)
board.cache_hierarchy.cc_l3cache.demandAccesses::processor.cores3.core.inst            3                       # number of demand (read+write) accesses (Count)
board.cache_hierarchy.cc_l3cache.demandAccesses::processor.cores3.core.data        73489                       # number of demand (read+write) accesses (Count)
board.cache_hierarchy.cc_l3cache.demandAccesses::processor.cores4.core.data        73543                       # number of demand (read+write) accesses (Count)
board.cache_hierarchy.cc_l3cache.demandAccesses::processor.cores5.core.data        73803                       # number of demand (read+write) accesses (Count)
board.cache_hierarchy.cc_l3cache.demandAccesses::processor.cores6.core.data        73555                       # number of demand (read+write) accesses (Count)
board.cache_hierarchy.cc_l3cache.demandAccesses::processor.cores7.core.inst            5                       # number of demand (read+write) accesses (Count)
board.cache_hierarchy.cc_l3cache.demandAccesses::processor.cores7.core.data        73682                       # number of demand (read+write) accesses (Count)
board.cache_hierarchy.cc_l3cache.demandAccesses::total      9297336                       # number of demand (read+write) accesses (Count)
board.cache_hierarchy.cc_l3cache.overallAccesses::writebacks      1082307                       # number of overall (read+write) accesses (Count)
board.cache_hierarchy.cc_l3cache.overallAccesses::functional      1027271                       # number of overall (read+write) accesses (Count)
board.cache_hierarchy.cc_l3cache.overallAccesses::interrupt      1029136                       # number of overall (read+write) accesses (Count)
board.cache_hierarchy.cc_l3cache.overallAccesses::cache_hierarchy.cc_l3cache.prefetcher      1028616                       # number of overall (read+write) accesses (Count)
board.cache_hierarchy.cc_l3cache.overallAccesses::cache_hierarchy.l1dcaches0.prefetcher      1080101                       # number of overall (read+write) accesses (Count)
board.cache_hierarchy.cc_l3cache.overallAccesses::cache_hierarchy.l1dcaches1.prefetcher      1074352                       # number of overall (read+write) accesses (Count)
board.cache_hierarchy.cc_l3cache.overallAccesses::cache_hierarchy.l1dcaches2.prefetcher      1074670                       # number of overall (read+write) accesses (Count)
board.cache_hierarchy.cc_l3cache.overallAccesses::cache_hierarchy.l1dcaches3.prefetcher      1077632                       # number of overall (read+write) accesses (Count)
board.cache_hierarchy.cc_l3cache.overallAccesses::cache_hierarchy.l1dcaches4.prefetcher        51501                       # number of overall (read+write) accesses (Count)
board.cache_hierarchy.cc_l3cache.overallAccesses::cache_hierarchy.l1dcaches5.prefetcher        50863                       # number of overall (read+write) accesses (Count)
board.cache_hierarchy.cc_l3cache.overallAccesses::cache_hierarchy.l1dcaches6.prefetcher        50987                       # number of overall (read+write) accesses (Count)
board.cache_hierarchy.cc_l3cache.overallAccesses::cache_hierarchy.l1dcaches7.prefetcher        51041                       # number of overall (read+write) accesses (Count)
board.cache_hierarchy.cc_l3cache.overallAccesses::cache_hierarchy.l2cache.prefetcher        27319                       # number of overall (read+write) accesses (Count)
board.cache_hierarchy.cc_l3cache.overallAccesses::processor.cores0.core.inst         1209                       # number of overall (read+write) accesses (Count)
board.cache_hierarchy.cc_l3cache.overallAccesses::processor.cores0.core.data        74895                       # number of overall (read+write) accesses (Count)
board.cache_hierarchy.cc_l3cache.overallAccesses::processor.cores1.core.inst           40                       # number of overall (read+write) accesses (Count)
board.cache_hierarchy.cc_l3cache.overallAccesses::processor.cores1.core.data        73742                       # number of overall (read+write) accesses (Count)
board.cache_hierarchy.cc_l3cache.overallAccesses::processor.cores2.core.inst            4                       # number of overall (read+write) accesses (Count)
board.cache_hierarchy.cc_l3cache.overallAccesses::processor.cores2.core.data        73570                       # number of overall (read+write) accesses (Count)
board.cache_hierarchy.cc_l3cache.overallAccesses::processor.cores3.core.inst            3                       # number of overall (read+write) accesses (Count)
board.cache_hierarchy.cc_l3cache.overallAccesses::processor.cores3.core.data        73489                       # number of overall (read+write) accesses (Count)
board.cache_hierarchy.cc_l3cache.overallAccesses::processor.cores4.core.data        73543                       # number of overall (read+write) accesses (Count)
board.cache_hierarchy.cc_l3cache.overallAccesses::processor.cores5.core.data        73803                       # number of overall (read+write) accesses (Count)
board.cache_hierarchy.cc_l3cache.overallAccesses::processor.cores6.core.data        73555                       # number of overall (read+write) accesses (Count)
board.cache_hierarchy.cc_l3cache.overallAccesses::processor.cores7.core.inst            5                       # number of overall (read+write) accesses (Count)
board.cache_hierarchy.cc_l3cache.overallAccesses::processor.cores7.core.data        73682                       # number of overall (read+write) accesses (Count)
board.cache_hierarchy.cc_l3cache.overallAccesses::total      9297336                       # number of overall (read+write) accesses (Count)
board.cache_hierarchy.cc_l3cache.demandMissRate::cache_hierarchy.l1dcaches0.prefetcher     0.047556                       # miss rate for demand accesses (Ratio)
board.cache_hierarchy.cc_l3cache.demandMissRate::cache_hierarchy.l1dcaches1.prefetcher     0.047159                       # miss rate for demand accesses (Ratio)
board.cache_hierarchy.cc_l3cache.demandMissRate::cache_hierarchy.l1dcaches2.prefetcher     0.047646                       # miss rate for demand accesses (Ratio)
board.cache_hierarchy.cc_l3cache.demandMissRate::cache_hierarchy.l1dcaches3.prefetcher     0.047440                       # miss rate for demand accesses (Ratio)
board.cache_hierarchy.cc_l3cache.demandMissRate::cache_hierarchy.l1dcaches4.prefetcher     0.995631                       # miss rate for demand accesses (Ratio)
board.cache_hierarchy.cc_l3cache.demandMissRate::cache_hierarchy.l1dcaches5.prefetcher     0.995793                       # miss rate for demand accesses (Ratio)
board.cache_hierarchy.cc_l3cache.demandMissRate::cache_hierarchy.l1dcaches6.prefetcher     0.996097                       # miss rate for demand accesses (Ratio)
board.cache_hierarchy.cc_l3cache.demandMissRate::cache_hierarchy.l1dcaches7.prefetcher     0.995259                       # miss rate for demand accesses (Ratio)
board.cache_hierarchy.cc_l3cache.demandMissRate::cache_hierarchy.l2cache.prefetcher     0.980746                       # miss rate for demand accesses (Ratio)
board.cache_hierarchy.cc_l3cache.demandMissRate::processor.cores0.core.inst            1                       # miss rate for demand accesses (Ratio)
board.cache_hierarchy.cc_l3cache.demandMissRate::processor.cores0.core.data     0.996702                       # miss rate for demand accesses (Ratio)
board.cache_hierarchy.cc_l3cache.demandMissRate::processor.cores1.core.inst            1                       # miss rate for demand accesses (Ratio)
board.cache_hierarchy.cc_l3cache.demandMissRate::processor.cores1.core.data     0.996461                       # miss rate for demand accesses (Ratio)
board.cache_hierarchy.cc_l3cache.demandMissRate::processor.cores2.core.inst            1                       # miss rate for demand accesses (Ratio)
board.cache_hierarchy.cc_l3cache.demandMissRate::processor.cores2.core.data     0.996697                       # miss rate for demand accesses (Ratio)
board.cache_hierarchy.cc_l3cache.demandMissRate::processor.cores3.core.inst            1                       # miss rate for demand accesses (Ratio)
board.cache_hierarchy.cc_l3cache.demandMissRate::processor.cores3.core.data     0.996639                       # miss rate for demand accesses (Ratio)
board.cache_hierarchy.cc_l3cache.demandMissRate::processor.cores4.core.data     0.996573                       # miss rate for demand accesses (Ratio)
board.cache_hierarchy.cc_l3cache.demandMissRate::processor.cores5.core.data     0.996518                       # miss rate for demand accesses (Ratio)
board.cache_hierarchy.cc_l3cache.demandMissRate::processor.cores6.core.data     0.996288                       # miss rate for demand accesses (Ratio)
board.cache_hierarchy.cc_l3cache.demandMissRate::processor.cores7.core.inst            1                       # miss rate for demand accesses (Ratio)
board.cache_hierarchy.cc_l3cache.demandMissRate::processor.cores7.core.data     0.996838                       # miss rate for demand accesses (Ratio)
board.cache_hierarchy.cc_l3cache.demandMissRate::total     0.110159                       # miss rate for demand accesses (Ratio)
board.cache_hierarchy.cc_l3cache.overallMissRate::cache_hierarchy.l1dcaches0.prefetcher     0.047556                       # miss rate for overall accesses (Ratio)
board.cache_hierarchy.cc_l3cache.overallMissRate::cache_hierarchy.l1dcaches1.prefetcher     0.047159                       # miss rate for overall accesses (Ratio)
board.cache_hierarchy.cc_l3cache.overallMissRate::cache_hierarchy.l1dcaches2.prefetcher     0.047646                       # miss rate for overall accesses (Ratio)
board.cache_hierarchy.cc_l3cache.overallMissRate::cache_hierarchy.l1dcaches3.prefetcher     0.047440                       # miss rate for overall accesses (Ratio)
board.cache_hierarchy.cc_l3cache.overallMissRate::cache_hierarchy.l1dcaches4.prefetcher     0.995631                       # miss rate for overall accesses (Ratio)
board.cache_hierarchy.cc_l3cache.overallMissRate::cache_hierarchy.l1dcaches5.prefetcher     0.995793                       # miss rate for overall accesses (Ratio)
board.cache_hierarchy.cc_l3cache.overallMissRate::cache_hierarchy.l1dcaches6.prefetcher     0.996097                       # miss rate for overall accesses (Ratio)
board.cache_hierarchy.cc_l3cache.overallMissRate::cache_hierarchy.l1dcaches7.prefetcher     0.995259                       # miss rate for overall accesses (Ratio)
board.cache_hierarchy.cc_l3cache.overallMissRate::cache_hierarchy.l2cache.prefetcher     0.980746                       # miss rate for overall accesses (Ratio)
board.cache_hierarchy.cc_l3cache.overallMissRate::processor.cores0.core.inst            1                       # miss rate for overall accesses (Ratio)
board.cache_hierarchy.cc_l3cache.overallMissRate::processor.cores0.core.data     0.996702                       # miss rate for overall accesses (Ratio)
board.cache_hierarchy.cc_l3cache.overallMissRate::processor.cores1.core.inst            1                       # miss rate for overall accesses (Ratio)
board.cache_hierarchy.cc_l3cache.overallMissRate::processor.cores1.core.data     0.996461                       # miss rate for overall accesses (Ratio)
board.cache_hierarchy.cc_l3cache.overallMissRate::processor.cores2.core.inst            1                       # miss rate for overall accesses (Ratio)
board.cache_hierarchy.cc_l3cache.overallMissRate::processor.cores2.core.data     0.996697                       # miss rate for overall accesses (Ratio)
board.cache_hierarchy.cc_l3cache.overallMissRate::processor.cores3.core.inst            1                       # miss rate for overall accesses (Ratio)
board.cache_hierarchy.cc_l3cache.overallMissRate::processor.cores3.core.data     0.996639                       # miss rate for overall accesses (Ratio)
board.cache_hierarchy.cc_l3cache.overallMissRate::processor.cores4.core.data     0.996573                       # miss rate for overall accesses (Ratio)
board.cache_hierarchy.cc_l3cache.overallMissRate::processor.cores5.core.data     0.996518                       # miss rate for overall accesses (Ratio)
board.cache_hierarchy.cc_l3cache.overallMissRate::processor.cores6.core.data     0.996288                       # miss rate for overall accesses (Ratio)
board.cache_hierarchy.cc_l3cache.overallMissRate::processor.cores7.core.inst            1                       # miss rate for overall accesses (Ratio)
board.cache_hierarchy.cc_l3cache.overallMissRate::processor.cores7.core.data     0.996838                       # miss rate for overall accesses (Ratio)
board.cache_hierarchy.cc_l3cache.overallMissRate::total     0.110159                       # miss rate for overall accesses (Ratio)
board.cache_hierarchy.cc_l3cache.demandAvgMissLatency::cache_hierarchy.l1dcaches0.prefetcher 199090.140387                       # average overall miss latency in ticks ((Tick/Count))
board.cache_hierarchy.cc_l3cache.demandAvgMissLatency::cache_hierarchy.l1dcaches1.prefetcher 199467.256331                       # average overall miss latency in ticks ((Tick/Count))
board.cache_hierarchy.cc_l3cache.demandAvgMissLatency::cache_hierarchy.l1dcaches2.prefetcher 199056.498848                       # average overall miss latency in ticks ((Tick/Count))
board.cache_hierarchy.cc_l3cache.demandAvgMissLatency::cache_hierarchy.l1dcaches3.prefetcher 199729.423704                       # average overall miss latency in ticks ((Tick/Count))
board.cache_hierarchy.cc_l3cache.demandAvgMissLatency::cache_hierarchy.l1dcaches4.prefetcher 199085.483521                       # average overall miss latency in ticks ((Tick/Count))
board.cache_hierarchy.cc_l3cache.demandAvgMissLatency::cache_hierarchy.l1dcaches5.prefetcher 200548.581137                       # average overall miss latency in ticks ((Tick/Count))
board.cache_hierarchy.cc_l3cache.demandAvgMissLatency::cache_hierarchy.l1dcaches6.prefetcher 199239.413031                       # average overall miss latency in ticks ((Tick/Count))
board.cache_hierarchy.cc_l3cache.demandAvgMissLatency::cache_hierarchy.l1dcaches7.prefetcher 199692.493868                       # average overall miss latency in ticks ((Tick/Count))
board.cache_hierarchy.cc_l3cache.demandAvgMissLatency::cache_hierarchy.l2cache.prefetcher 182157.286157                       # average overall miss latency in ticks ((Tick/Count))
board.cache_hierarchy.cc_l3cache.demandAvgMissLatency::processor.cores0.core.inst 54589.965261                       # average overall miss latency in ticks ((Tick/Count))
board.cache_hierarchy.cc_l3cache.demandAvgMissLatency::processor.cores0.core.data 170383.365301                       # average overall miss latency in ticks ((Tick/Count))
board.cache_hierarchy.cc_l3cache.demandAvgMissLatency::processor.cores1.core.inst 65292.975000                       # average overall miss latency in ticks ((Tick/Count))
board.cache_hierarchy.cc_l3cache.demandAvgMissLatency::processor.cores1.core.data 172318.664362                       # average overall miss latency in ticks ((Tick/Count))
board.cache_hierarchy.cc_l3cache.demandAvgMissLatency::processor.cores2.core.inst 50532.750000                       # average overall miss latency in ticks ((Tick/Count))
board.cache_hierarchy.cc_l3cache.demandAvgMissLatency::processor.cores2.core.data 172545.730986                       # average overall miss latency in ticks ((Tick/Count))
board.cache_hierarchy.cc_l3cache.demandAvgMissLatency::processor.cores3.core.inst        52170                       # average overall miss latency in ticks ((Tick/Count))
board.cache_hierarchy.cc_l3cache.demandAvgMissLatency::processor.cores3.core.data 172616.079162                       # average overall miss latency in ticks ((Tick/Count))
board.cache_hierarchy.cc_l3cache.demandAvgMissLatency::processor.cores4.core.data 172575.207747                       # average overall miss latency in ticks ((Tick/Count))
board.cache_hierarchy.cc_l3cache.demandAvgMissLatency::processor.cores5.core.data 172171.338672                       # average overall miss latency in ticks ((Tick/Count))
board.cache_hierarchy.cc_l3cache.demandAvgMissLatency::processor.cores6.core.data 172825.643473                       # average overall miss latency in ticks ((Tick/Count))
board.cache_hierarchy.cc_l3cache.demandAvgMissLatency::processor.cores7.core.inst 60006.600000                       # average overall miss latency in ticks ((Tick/Count))
board.cache_hierarchy.cc_l3cache.demandAvgMissLatency::processor.cores7.core.data 172205.533840                       # average overall miss latency in ticks ((Tick/Count))
board.cache_hierarchy.cc_l3cache.demandAvgMissLatency::total 183183.349139                       # average overall miss latency in ticks ((Tick/Count))
board.cache_hierarchy.cc_l3cache.overallAvgMissLatency::cache_hierarchy.l1dcaches0.prefetcher 199090.140387                       # average overall miss latency ((Tick/Count))
board.cache_hierarchy.cc_l3cache.overallAvgMissLatency::cache_hierarchy.l1dcaches1.prefetcher 199467.256331                       # average overall miss latency ((Tick/Count))
board.cache_hierarchy.cc_l3cache.overallAvgMissLatency::cache_hierarchy.l1dcaches2.prefetcher 199056.498848                       # average overall miss latency ((Tick/Count))
board.cache_hierarchy.cc_l3cache.overallAvgMissLatency::cache_hierarchy.l1dcaches3.prefetcher 199729.423704                       # average overall miss latency ((Tick/Count))
board.cache_hierarchy.cc_l3cache.overallAvgMissLatency::cache_hierarchy.l1dcaches4.prefetcher 199085.483521                       # average overall miss latency ((Tick/Count))
board.cache_hierarchy.cc_l3cache.overallAvgMissLatency::cache_hierarchy.l1dcaches5.prefetcher 200548.581137                       # average overall miss latency ((Tick/Count))
board.cache_hierarchy.cc_l3cache.overallAvgMissLatency::cache_hierarchy.l1dcaches6.prefetcher 199239.413031                       # average overall miss latency ((Tick/Count))
board.cache_hierarchy.cc_l3cache.overallAvgMissLatency::cache_hierarchy.l1dcaches7.prefetcher 199692.493868                       # average overall miss latency ((Tick/Count))
board.cache_hierarchy.cc_l3cache.overallAvgMissLatency::cache_hierarchy.l2cache.prefetcher 182157.286157                       # average overall miss latency ((Tick/Count))
board.cache_hierarchy.cc_l3cache.overallAvgMissLatency::processor.cores0.core.inst 54589.965261                       # average overall miss latency ((Tick/Count))
board.cache_hierarchy.cc_l3cache.overallAvgMissLatency::processor.cores0.core.data 170383.365301                       # average overall miss latency ((Tick/Count))
board.cache_hierarchy.cc_l3cache.overallAvgMissLatency::processor.cores1.core.inst 65292.975000                       # average overall miss latency ((Tick/Count))
board.cache_hierarchy.cc_l3cache.overallAvgMissLatency::processor.cores1.core.data 172318.664362                       # average overall miss latency ((Tick/Count))
board.cache_hierarchy.cc_l3cache.overallAvgMissLatency::processor.cores2.core.inst 50532.750000                       # average overall miss latency ((Tick/Count))
board.cache_hierarchy.cc_l3cache.overallAvgMissLatency::processor.cores2.core.data 172545.730986                       # average overall miss latency ((Tick/Count))
board.cache_hierarchy.cc_l3cache.overallAvgMissLatency::processor.cores3.core.inst        52170                       # average overall miss latency ((Tick/Count))
board.cache_hierarchy.cc_l3cache.overallAvgMissLatency::processor.cores3.core.data 172616.079162                       # average overall miss latency ((Tick/Count))
board.cache_hierarchy.cc_l3cache.overallAvgMissLatency::processor.cores4.core.data 172575.207747                       # average overall miss latency ((Tick/Count))
board.cache_hierarchy.cc_l3cache.overallAvgMissLatency::processor.cores5.core.data 172171.338672                       # average overall miss latency ((Tick/Count))
board.cache_hierarchy.cc_l3cache.overallAvgMissLatency::processor.cores6.core.data 172825.643473                       # average overall miss latency ((Tick/Count))
board.cache_hierarchy.cc_l3cache.overallAvgMissLatency::processor.cores7.core.inst 60006.600000                       # average overall miss latency ((Tick/Count))
board.cache_hierarchy.cc_l3cache.overallAvgMissLatency::processor.cores7.core.data 172205.533840                       # average overall miss latency ((Tick/Count))
board.cache_hierarchy.cc_l3cache.overallAvgMissLatency::total 183183.349139                       # average overall miss latency ((Tick/Count))
board.cache_hierarchy.cc_l3cache.blockedCycles::no_mshrs      3327849                       # number of cycles access was blocked (Cycle)
board.cache_hierarchy.cc_l3cache.blockedCycles::no_targets            0                       # number of cycles access was blocked (Cycle)
board.cache_hierarchy.cc_l3cache.blockedCauses::no_mshrs        53832                       # number of times access was blocked (Count)
board.cache_hierarchy.cc_l3cache.blockedCauses::no_targets            0                       # number of times access was blocked (Count)
board.cache_hierarchy.cc_l3cache.avgBlocked::no_mshrs    61.819160                       # average number of cycles each access was blocked ((Cycle/Count))
board.cache_hierarchy.cc_l3cache.avgBlocked::no_targets          nan                       # average number of cycles each access was blocked ((Cycle/Count))
board.cache_hierarchy.cc_l3cache.writebacks::writebacks      1527971                       # number of writebacks (Count)
board.cache_hierarchy.cc_l3cache.writebacks::total      1527971                       # number of writebacks (Count)
board.cache_hierarchy.cc_l3cache.demandMshrHits::cache_hierarchy.l1dcaches0.prefetcher            3                       # number of demand (read+write) MSHR hits (Count)
board.cache_hierarchy.cc_l3cache.demandMshrHits::cache_hierarchy.l1dcaches1.prefetcher            8                       # number of demand (read+write) MSHR hits (Count)
board.cache_hierarchy.cc_l3cache.demandMshrHits::cache_hierarchy.l1dcaches2.prefetcher            8                       # number of demand (read+write) MSHR hits (Count)
board.cache_hierarchy.cc_l3cache.demandMshrHits::cache_hierarchy.l1dcaches3.prefetcher           10                       # number of demand (read+write) MSHR hits (Count)
board.cache_hierarchy.cc_l3cache.demandMshrHits::cache_hierarchy.l1dcaches4.prefetcher            9                       # number of demand (read+write) MSHR hits (Count)
board.cache_hierarchy.cc_l3cache.demandMshrHits::cache_hierarchy.l1dcaches5.prefetcher           13                       # number of demand (read+write) MSHR hits (Count)
board.cache_hierarchy.cc_l3cache.demandMshrHits::cache_hierarchy.l1dcaches6.prefetcher           12                       # number of demand (read+write) MSHR hits (Count)
board.cache_hierarchy.cc_l3cache.demandMshrHits::cache_hierarchy.l1dcaches7.prefetcher           14                       # number of demand (read+write) MSHR hits (Count)
board.cache_hierarchy.cc_l3cache.demandMshrHits::cache_hierarchy.l2cache.prefetcher         6617                       # number of demand (read+write) MSHR hits (Count)
board.cache_hierarchy.cc_l3cache.demandMshrHits::processor.cores0.core.data            4                       # number of demand (read+write) MSHR hits (Count)
board.cache_hierarchy.cc_l3cache.demandMshrHits::processor.cores1.core.data            4                       # number of demand (read+write) MSHR hits (Count)
board.cache_hierarchy.cc_l3cache.demandMshrHits::processor.cores2.core.data            6                       # number of demand (read+write) MSHR hits (Count)
board.cache_hierarchy.cc_l3cache.demandMshrHits::processor.cores3.core.data            7                       # number of demand (read+write) MSHR hits (Count)
board.cache_hierarchy.cc_l3cache.demandMshrHits::processor.cores4.core.data            8                       # number of demand (read+write) MSHR hits (Count)
board.cache_hierarchy.cc_l3cache.demandMshrHits::processor.cores5.core.data            7                       # number of demand (read+write) MSHR hits (Count)
board.cache_hierarchy.cc_l3cache.demandMshrHits::processor.cores6.core.data            9                       # number of demand (read+write) MSHR hits (Count)
board.cache_hierarchy.cc_l3cache.demandMshrHits::processor.cores7.core.data            8                       # number of demand (read+write) MSHR hits (Count)
board.cache_hierarchy.cc_l3cache.demandMshrHits::total         6747                       # number of demand (read+write) MSHR hits (Count)
board.cache_hierarchy.cc_l3cache.overallMshrHits::cache_hierarchy.l1dcaches0.prefetcher            3                       # number of overall MSHR hits (Count)
board.cache_hierarchy.cc_l3cache.overallMshrHits::cache_hierarchy.l1dcaches1.prefetcher            8                       # number of overall MSHR hits (Count)
board.cache_hierarchy.cc_l3cache.overallMshrHits::cache_hierarchy.l1dcaches2.prefetcher            8                       # number of overall MSHR hits (Count)
board.cache_hierarchy.cc_l3cache.overallMshrHits::cache_hierarchy.l1dcaches3.prefetcher           10                       # number of overall MSHR hits (Count)
board.cache_hierarchy.cc_l3cache.overallMshrHits::cache_hierarchy.l1dcaches4.prefetcher            9                       # number of overall MSHR hits (Count)
board.cache_hierarchy.cc_l3cache.overallMshrHits::cache_hierarchy.l1dcaches5.prefetcher           13                       # number of overall MSHR hits (Count)
board.cache_hierarchy.cc_l3cache.overallMshrHits::cache_hierarchy.l1dcaches6.prefetcher           12                       # number of overall MSHR hits (Count)
board.cache_hierarchy.cc_l3cache.overallMshrHits::cache_hierarchy.l1dcaches7.prefetcher           14                       # number of overall MSHR hits (Count)
board.cache_hierarchy.cc_l3cache.overallMshrHits::cache_hierarchy.l2cache.prefetcher         6617                       # number of overall MSHR hits (Count)
board.cache_hierarchy.cc_l3cache.overallMshrHits::processor.cores0.core.data            4                       # number of overall MSHR hits (Count)
board.cache_hierarchy.cc_l3cache.overallMshrHits::processor.cores1.core.data            4                       # number of overall MSHR hits (Count)
board.cache_hierarchy.cc_l3cache.overallMshrHits::processor.cores2.core.data            6                       # number of overall MSHR hits (Count)
board.cache_hierarchy.cc_l3cache.overallMshrHits::processor.cores3.core.data            7                       # number of overall MSHR hits (Count)
board.cache_hierarchy.cc_l3cache.overallMshrHits::processor.cores4.core.data            8                       # number of overall MSHR hits (Count)
board.cache_hierarchy.cc_l3cache.overallMshrHits::processor.cores5.core.data            7                       # number of overall MSHR hits (Count)
board.cache_hierarchy.cc_l3cache.overallMshrHits::processor.cores6.core.data            9                       # number of overall MSHR hits (Count)
board.cache_hierarchy.cc_l3cache.overallMshrHits::processor.cores7.core.data            8                       # number of overall MSHR hits (Count)
board.cache_hierarchy.cc_l3cache.overallMshrHits::total         6747                       # number of overall MSHR hits (Count)
board.cache_hierarchy.cc_l3cache.demandMshrMisses::cache_hierarchy.l1dcaches0.prefetcher        51362                       # number of demand (read+write) MSHR misses (Count)
board.cache_hierarchy.cc_l3cache.demandMshrMisses::cache_hierarchy.l1dcaches1.prefetcher        50657                       # number of demand (read+write) MSHR misses (Count)
board.cache_hierarchy.cc_l3cache.demandMshrMisses::cache_hierarchy.l1dcaches2.prefetcher        51196                       # number of demand (read+write) MSHR misses (Count)
board.cache_hierarchy.cc_l3cache.demandMshrMisses::cache_hierarchy.l1dcaches3.prefetcher        51113                       # number of demand (read+write) MSHR misses (Count)
board.cache_hierarchy.cc_l3cache.demandMshrMisses::cache_hierarchy.l1dcaches4.prefetcher        51267                       # number of demand (read+write) MSHR misses (Count)
board.cache_hierarchy.cc_l3cache.demandMshrMisses::cache_hierarchy.l1dcaches5.prefetcher        50636                       # number of demand (read+write) MSHR misses (Count)
board.cache_hierarchy.cc_l3cache.demandMshrMisses::cache_hierarchy.l1dcaches6.prefetcher        50776                       # number of demand (read+write) MSHR misses (Count)
board.cache_hierarchy.cc_l3cache.demandMshrMisses::cache_hierarchy.l1dcaches7.prefetcher        50785                       # number of demand (read+write) MSHR misses (Count)
board.cache_hierarchy.cc_l3cache.demandMshrMisses::cache_hierarchy.l2cache.prefetcher        20176                       # number of demand (read+write) MSHR misses (Count)
board.cache_hierarchy.cc_l3cache.demandMshrMisses::processor.cores0.core.inst         1209                       # number of demand (read+write) MSHR misses (Count)
board.cache_hierarchy.cc_l3cache.demandMshrMisses::processor.cores0.core.data        74644                       # number of demand (read+write) MSHR misses (Count)
board.cache_hierarchy.cc_l3cache.demandMshrMisses::processor.cores1.core.inst           40                       # number of demand (read+write) MSHR misses (Count)
board.cache_hierarchy.cc_l3cache.demandMshrMisses::processor.cores1.core.data        73477                       # number of demand (read+write) MSHR misses (Count)
board.cache_hierarchy.cc_l3cache.demandMshrMisses::processor.cores2.core.inst            4                       # number of demand (read+write) MSHR misses (Count)
board.cache_hierarchy.cc_l3cache.demandMshrMisses::processor.cores2.core.data        73321                       # number of demand (read+write) MSHR misses (Count)
board.cache_hierarchy.cc_l3cache.demandMshrMisses::processor.cores3.core.inst            3                       # number of demand (read+write) MSHR misses (Count)
board.cache_hierarchy.cc_l3cache.demandMshrMisses::processor.cores3.core.data        73235                       # number of demand (read+write) MSHR misses (Count)
board.cache_hierarchy.cc_l3cache.demandMshrMisses::processor.cores4.core.data        73283                       # number of demand (read+write) MSHR misses (Count)
board.cache_hierarchy.cc_l3cache.demandMshrMisses::processor.cores5.core.data        73539                       # number of demand (read+write) MSHR misses (Count)
board.cache_hierarchy.cc_l3cache.demandMshrMisses::processor.cores6.core.data        73273                       # number of demand (read+write) MSHR misses (Count)
board.cache_hierarchy.cc_l3cache.demandMshrMisses::processor.cores7.core.inst            5                       # number of demand (read+write) MSHR misses (Count)
board.cache_hierarchy.cc_l3cache.demandMshrMisses::processor.cores7.core.data        73441                       # number of demand (read+write) MSHR misses (Count)
board.cache_hierarchy.cc_l3cache.demandMshrMisses::total      1017442                       # number of demand (read+write) MSHR misses (Count)
board.cache_hierarchy.cc_l3cache.overallMshrMisses::cache_hierarchy.cc_l3cache.prefetcher        11171                       # number of overall MSHR misses (Count)
board.cache_hierarchy.cc_l3cache.overallMshrMisses::cache_hierarchy.l1dcaches0.prefetcher        51362                       # number of overall MSHR misses (Count)
board.cache_hierarchy.cc_l3cache.overallMshrMisses::cache_hierarchy.l1dcaches1.prefetcher        50657                       # number of overall MSHR misses (Count)
board.cache_hierarchy.cc_l3cache.overallMshrMisses::cache_hierarchy.l1dcaches2.prefetcher        51196                       # number of overall MSHR misses (Count)
board.cache_hierarchy.cc_l3cache.overallMshrMisses::cache_hierarchy.l1dcaches3.prefetcher        51113                       # number of overall MSHR misses (Count)
board.cache_hierarchy.cc_l3cache.overallMshrMisses::cache_hierarchy.l1dcaches4.prefetcher        51267                       # number of overall MSHR misses (Count)
board.cache_hierarchy.cc_l3cache.overallMshrMisses::cache_hierarchy.l1dcaches5.prefetcher        50636                       # number of overall MSHR misses (Count)
board.cache_hierarchy.cc_l3cache.overallMshrMisses::cache_hierarchy.l1dcaches6.prefetcher        50776                       # number of overall MSHR misses (Count)
board.cache_hierarchy.cc_l3cache.overallMshrMisses::cache_hierarchy.l1dcaches7.prefetcher        50785                       # number of overall MSHR misses (Count)
board.cache_hierarchy.cc_l3cache.overallMshrMisses::cache_hierarchy.l2cache.prefetcher        20176                       # number of overall MSHR misses (Count)
board.cache_hierarchy.cc_l3cache.overallMshrMisses::processor.cores0.core.inst         1209                       # number of overall MSHR misses (Count)
board.cache_hierarchy.cc_l3cache.overallMshrMisses::processor.cores0.core.data        74644                       # number of overall MSHR misses (Count)
board.cache_hierarchy.cc_l3cache.overallMshrMisses::processor.cores1.core.inst           40                       # number of overall MSHR misses (Count)
board.cache_hierarchy.cc_l3cache.overallMshrMisses::processor.cores1.core.data        73477                       # number of overall MSHR misses (Count)
board.cache_hierarchy.cc_l3cache.overallMshrMisses::processor.cores2.core.inst            4                       # number of overall MSHR misses (Count)
board.cache_hierarchy.cc_l3cache.overallMshrMisses::processor.cores2.core.data        73321                       # number of overall MSHR misses (Count)
board.cache_hierarchy.cc_l3cache.overallMshrMisses::processor.cores3.core.inst            3                       # number of overall MSHR misses (Count)
board.cache_hierarchy.cc_l3cache.overallMshrMisses::processor.cores3.core.data        73235                       # number of overall MSHR misses (Count)
board.cache_hierarchy.cc_l3cache.overallMshrMisses::processor.cores4.core.data        73283                       # number of overall MSHR misses (Count)
board.cache_hierarchy.cc_l3cache.overallMshrMisses::processor.cores5.core.data        73539                       # number of overall MSHR misses (Count)
board.cache_hierarchy.cc_l3cache.overallMshrMisses::processor.cores6.core.data        73273                       # number of overall MSHR misses (Count)
board.cache_hierarchy.cc_l3cache.overallMshrMisses::processor.cores7.core.inst            5                       # number of overall MSHR misses (Count)
board.cache_hierarchy.cc_l3cache.overallMshrMisses::processor.cores7.core.data        73441                       # number of overall MSHR misses (Count)
board.cache_hierarchy.cc_l3cache.overallMshrMisses::total      1028613                       # number of overall MSHR misses (Count)
board.cache_hierarchy.cc_l3cache.demandMshrMissLatency::cache_hierarchy.l1dcaches0.prefetcher  10209041968                       # number of demand (read+write) MSHR miss ticks (Tick)
board.cache_hierarchy.cc_l3cache.demandMshrMissLatency::cache_hierarchy.l1dcaches1.prefetcher  10088440793                       # number of demand (read+write) MSHR miss ticks (Tick)
board.cache_hierarchy.cc_l3cache.demandMshrMissLatency::cache_hierarchy.l1dcaches2.prefetcher  10174698103                       # number of demand (read+write) MSHR miss ticks (Tick)
board.cache_hierarchy.cc_l3cache.demandMshrMissLatency::cache_hierarchy.l1dcaches3.prefetcher  10193032414                       # number of demand (read+write) MSHR miss ticks (Tick)
board.cache_hierarchy.cc_l3cache.demandMshrMissLatency::cache_hierarchy.l1dcaches4.prefetcher  10190673571                       # number of demand (read+write) MSHR miss ticks (Tick)
board.cache_hierarchy.cc_l3cache.demandMshrMissLatency::cache_hierarchy.l1dcaches5.prefetcher  10140157198                       # number of demand (read+write) MSHR miss ticks (Tick)
board.cache_hierarchy.cc_l3cache.demandMshrMissLatency::cache_hierarchy.l1dcaches6.prefetcher  10100989975                       # number of demand (read+write) MSHR miss ticks (Tick)
board.cache_hierarchy.cc_l3cache.demandMshrMissLatency::cache_hierarchy.l1dcaches7.prefetcher  10126086440                       # number of demand (read+write) MSHR miss ticks (Tick)
board.cache_hierarchy.cc_l3cache.demandMshrMissLatency::cache_hierarchy.l2cache.prefetcher   4131201080                       # number of demand (read+write) MSHR miss ticks (Tick)
board.cache_hierarchy.cc_l3cache.demandMshrMissLatency::processor.cores0.core.inst     65596671                       # number of demand (read+write) MSHR miss ticks (Tick)
board.cache_hierarchy.cc_l3cache.demandMshrMissLatency::processor.cores0.core.data  12693615640                       # number of demand (read+write) MSHR miss ticks (Tick)
board.cache_hierarchy.cc_l3cache.demandMshrMissLatency::processor.cores1.core.inst      2598399                       # number of demand (read+write) MSHR miss ticks (Tick)
board.cache_hierarchy.cc_l3cache.demandMshrMissLatency::processor.cores1.core.data  12637257691                       # number of demand (read+write) MSHR miss ticks (Tick)
board.cache_hierarchy.cc_l3cache.demandMshrMissLatency::processor.cores2.core.inst       200799                       # number of demand (read+write) MSHR miss ticks (Tick)
board.cache_hierarchy.cc_l3cache.demandMshrMissLatency::processor.cores2.core.data  12627415686                       # number of demand (read+write) MSHR miss ticks (Tick)
board.cache_hierarchy.cc_l3cache.demandMshrMissLatency::processor.cores3.core.inst       155511                       # number of demand (read+write) MSHR miss ticks (Tick)
board.cache_hierarchy.cc_l3cache.demandMshrMissLatency::processor.cores3.core.data  12617776200                       # number of demand (read+write) MSHR miss ticks (Tick)
board.cache_hierarchy.cc_l3cache.demandMshrMissLatency::processor.cores4.core.data  12623105107                       # number of demand (read+write) MSHR miss ticks (Tick)
board.cache_hierarchy.cc_l3cache.demandMshrMissLatency::processor.cores5.core.data  12637124022                       # number of demand (read+write) MSHR miss ticks (Tick)
board.cache_hierarchy.cc_l3cache.demandMshrMissLatency::processor.cores6.core.data  12639651188                       # number of demand (read+write) MSHR miss ticks (Tick)
board.cache_hierarchy.cc_l3cache.demandMshrMissLatency::processor.cores7.core.inst       298368                       # number of demand (read+write) MSHR miss ticks (Tick)
board.cache_hierarchy.cc_l3cache.demandMshrMissLatency::processor.cores7.core.data  12623281228                       # number of demand (read+write) MSHR miss ticks (Tick)
board.cache_hierarchy.cc_l3cache.demandMshrMissLatency::total 186522398052                       # number of demand (read+write) MSHR miss ticks (Tick)
board.cache_hierarchy.cc_l3cache.overallMshrMissLatency::cache_hierarchy.cc_l3cache.prefetcher   1523150426                       # number of overall MSHR miss ticks (Tick)
board.cache_hierarchy.cc_l3cache.overallMshrMissLatency::cache_hierarchy.l1dcaches0.prefetcher  10209041968                       # number of overall MSHR miss ticks (Tick)
board.cache_hierarchy.cc_l3cache.overallMshrMissLatency::cache_hierarchy.l1dcaches1.prefetcher  10088440793                       # number of overall MSHR miss ticks (Tick)
board.cache_hierarchy.cc_l3cache.overallMshrMissLatency::cache_hierarchy.l1dcaches2.prefetcher  10174698103                       # number of overall MSHR miss ticks (Tick)
board.cache_hierarchy.cc_l3cache.overallMshrMissLatency::cache_hierarchy.l1dcaches3.prefetcher  10193032414                       # number of overall MSHR miss ticks (Tick)
board.cache_hierarchy.cc_l3cache.overallMshrMissLatency::cache_hierarchy.l1dcaches4.prefetcher  10190673571                       # number of overall MSHR miss ticks (Tick)
board.cache_hierarchy.cc_l3cache.overallMshrMissLatency::cache_hierarchy.l1dcaches5.prefetcher  10140157198                       # number of overall MSHR miss ticks (Tick)
board.cache_hierarchy.cc_l3cache.overallMshrMissLatency::cache_hierarchy.l1dcaches6.prefetcher  10100989975                       # number of overall MSHR miss ticks (Tick)
board.cache_hierarchy.cc_l3cache.overallMshrMissLatency::cache_hierarchy.l1dcaches7.prefetcher  10126086440                       # number of overall MSHR miss ticks (Tick)
board.cache_hierarchy.cc_l3cache.overallMshrMissLatency::cache_hierarchy.l2cache.prefetcher   4131201080                       # number of overall MSHR miss ticks (Tick)
board.cache_hierarchy.cc_l3cache.overallMshrMissLatency::processor.cores0.core.inst     65596671                       # number of overall MSHR miss ticks (Tick)
board.cache_hierarchy.cc_l3cache.overallMshrMissLatency::processor.cores0.core.data  12693615640                       # number of overall MSHR miss ticks (Tick)
board.cache_hierarchy.cc_l3cache.overallMshrMissLatency::processor.cores1.core.inst      2598399                       # number of overall MSHR miss ticks (Tick)
board.cache_hierarchy.cc_l3cache.overallMshrMissLatency::processor.cores1.core.data  12637257691                       # number of overall MSHR miss ticks (Tick)
board.cache_hierarchy.cc_l3cache.overallMshrMissLatency::processor.cores2.core.inst       200799                       # number of overall MSHR miss ticks (Tick)
board.cache_hierarchy.cc_l3cache.overallMshrMissLatency::processor.cores2.core.data  12627415686                       # number of overall MSHR miss ticks (Tick)
board.cache_hierarchy.cc_l3cache.overallMshrMissLatency::processor.cores3.core.inst       155511                       # number of overall MSHR miss ticks (Tick)
board.cache_hierarchy.cc_l3cache.overallMshrMissLatency::processor.cores3.core.data  12617776200                       # number of overall MSHR miss ticks (Tick)
board.cache_hierarchy.cc_l3cache.overallMshrMissLatency::processor.cores4.core.data  12623105107                       # number of overall MSHR miss ticks (Tick)
board.cache_hierarchy.cc_l3cache.overallMshrMissLatency::processor.cores5.core.data  12637124022                       # number of overall MSHR miss ticks (Tick)
board.cache_hierarchy.cc_l3cache.overallMshrMissLatency::processor.cores6.core.data  12639651188                       # number of overall MSHR miss ticks (Tick)
board.cache_hierarchy.cc_l3cache.overallMshrMissLatency::processor.cores7.core.inst       298368                       # number of overall MSHR miss ticks (Tick)
board.cache_hierarchy.cc_l3cache.overallMshrMissLatency::processor.cores7.core.data  12623281228                       # number of overall MSHR miss ticks (Tick)
board.cache_hierarchy.cc_l3cache.overallMshrMissLatency::total 188045548478                       # number of overall MSHR miss ticks (Tick)
board.cache_hierarchy.cc_l3cache.demandMshrMissRate::cache_hierarchy.l1dcaches0.prefetcher     0.047553                       # mshr miss ratio for demand accesses (Ratio)
board.cache_hierarchy.cc_l3cache.demandMshrMissRate::cache_hierarchy.l1dcaches1.prefetcher     0.047151                       # mshr miss ratio for demand accesses (Ratio)
board.cache_hierarchy.cc_l3cache.demandMshrMissRate::cache_hierarchy.l1dcaches2.prefetcher     0.047639                       # mshr miss ratio for demand accesses (Ratio)
board.cache_hierarchy.cc_l3cache.demandMshrMissRate::cache_hierarchy.l1dcaches3.prefetcher     0.047431                       # mshr miss ratio for demand accesses (Ratio)
board.cache_hierarchy.cc_l3cache.demandMshrMissRate::cache_hierarchy.l1dcaches4.prefetcher     0.995456                       # mshr miss ratio for demand accesses (Ratio)
board.cache_hierarchy.cc_l3cache.demandMshrMissRate::cache_hierarchy.l1dcaches5.prefetcher     0.995537                       # mshr miss ratio for demand accesses (Ratio)
board.cache_hierarchy.cc_l3cache.demandMshrMissRate::cache_hierarchy.l1dcaches6.prefetcher     0.995862                       # mshr miss ratio for demand accesses (Ratio)
board.cache_hierarchy.cc_l3cache.demandMshrMissRate::cache_hierarchy.l1dcaches7.prefetcher     0.994984                       # mshr miss ratio for demand accesses (Ratio)
board.cache_hierarchy.cc_l3cache.demandMshrMissRate::cache_hierarchy.l2cache.prefetcher     0.738534                       # mshr miss ratio for demand accesses (Ratio)
board.cache_hierarchy.cc_l3cache.demandMshrMissRate::processor.cores0.core.inst            1                       # mshr miss ratio for demand accesses (Ratio)
board.cache_hierarchy.cc_l3cache.demandMshrMissRate::processor.cores0.core.data     0.996649                       # mshr miss ratio for demand accesses (Ratio)
board.cache_hierarchy.cc_l3cache.demandMshrMissRate::processor.cores1.core.inst            1                       # mshr miss ratio for demand accesses (Ratio)
board.cache_hierarchy.cc_l3cache.demandMshrMissRate::processor.cores1.core.data     0.996406                       # mshr miss ratio for demand accesses (Ratio)
board.cache_hierarchy.cc_l3cache.demandMshrMissRate::processor.cores2.core.inst            1                       # mshr miss ratio for demand accesses (Ratio)
board.cache_hierarchy.cc_l3cache.demandMshrMissRate::processor.cores2.core.data     0.996615                       # mshr miss ratio for demand accesses (Ratio)
board.cache_hierarchy.cc_l3cache.demandMshrMissRate::processor.cores3.core.inst            1                       # mshr miss ratio for demand accesses (Ratio)
board.cache_hierarchy.cc_l3cache.demandMshrMissRate::processor.cores3.core.data     0.996544                       # mshr miss ratio for demand accesses (Ratio)
board.cache_hierarchy.cc_l3cache.demandMshrMissRate::processor.cores4.core.data     0.996465                       # mshr miss ratio for demand accesses (Ratio)
board.cache_hierarchy.cc_l3cache.demandMshrMissRate::processor.cores5.core.data     0.996423                       # mshr miss ratio for demand accesses (Ratio)
board.cache_hierarchy.cc_l3cache.demandMshrMissRate::processor.cores6.core.data     0.996166                       # mshr miss ratio for demand accesses (Ratio)
board.cache_hierarchy.cc_l3cache.demandMshrMissRate::processor.cores7.core.inst            1                       # mshr miss ratio for demand accesses (Ratio)
board.cache_hierarchy.cc_l3cache.demandMshrMissRate::processor.cores7.core.data     0.996729                       # mshr miss ratio for demand accesses (Ratio)
board.cache_hierarchy.cc_l3cache.demandMshrMissRate::total     0.109434                       # mshr miss ratio for demand accesses (Ratio)
board.cache_hierarchy.cc_l3cache.overallMshrMissRate::cache_hierarchy.cc_l3cache.prefetcher     0.010860                       # mshr miss ratio for overall accesses (Ratio)
board.cache_hierarchy.cc_l3cache.overallMshrMissRate::cache_hierarchy.l1dcaches0.prefetcher     0.047553                       # mshr miss ratio for overall accesses (Ratio)
board.cache_hierarchy.cc_l3cache.overallMshrMissRate::cache_hierarchy.l1dcaches1.prefetcher     0.047151                       # mshr miss ratio for overall accesses (Ratio)
board.cache_hierarchy.cc_l3cache.overallMshrMissRate::cache_hierarchy.l1dcaches2.prefetcher     0.047639                       # mshr miss ratio for overall accesses (Ratio)
board.cache_hierarchy.cc_l3cache.overallMshrMissRate::cache_hierarchy.l1dcaches3.prefetcher     0.047431                       # mshr miss ratio for overall accesses (Ratio)
board.cache_hierarchy.cc_l3cache.overallMshrMissRate::cache_hierarchy.l1dcaches4.prefetcher     0.995456                       # mshr miss ratio for overall accesses (Ratio)
board.cache_hierarchy.cc_l3cache.overallMshrMissRate::cache_hierarchy.l1dcaches5.prefetcher     0.995537                       # mshr miss ratio for overall accesses (Ratio)
board.cache_hierarchy.cc_l3cache.overallMshrMissRate::cache_hierarchy.l1dcaches6.prefetcher     0.995862                       # mshr miss ratio for overall accesses (Ratio)
board.cache_hierarchy.cc_l3cache.overallMshrMissRate::cache_hierarchy.l1dcaches7.prefetcher     0.994984                       # mshr miss ratio for overall accesses (Ratio)
board.cache_hierarchy.cc_l3cache.overallMshrMissRate::cache_hierarchy.l2cache.prefetcher     0.738534                       # mshr miss ratio for overall accesses (Ratio)
board.cache_hierarchy.cc_l3cache.overallMshrMissRate::processor.cores0.core.inst            1                       # mshr miss ratio for overall accesses (Ratio)
board.cache_hierarchy.cc_l3cache.overallMshrMissRate::processor.cores0.core.data     0.996649                       # mshr miss ratio for overall accesses (Ratio)
board.cache_hierarchy.cc_l3cache.overallMshrMissRate::processor.cores1.core.inst            1                       # mshr miss ratio for overall accesses (Ratio)
board.cache_hierarchy.cc_l3cache.overallMshrMissRate::processor.cores1.core.data     0.996406                       # mshr miss ratio for overall accesses (Ratio)
board.cache_hierarchy.cc_l3cache.overallMshrMissRate::processor.cores2.core.inst            1                       # mshr miss ratio for overall accesses (Ratio)
board.cache_hierarchy.cc_l3cache.overallMshrMissRate::processor.cores2.core.data     0.996615                       # mshr miss ratio for overall accesses (Ratio)
board.cache_hierarchy.cc_l3cache.overallMshrMissRate::processor.cores3.core.inst            1                       # mshr miss ratio for overall accesses (Ratio)
board.cache_hierarchy.cc_l3cache.overallMshrMissRate::processor.cores3.core.data     0.996544                       # mshr miss ratio for overall accesses (Ratio)
board.cache_hierarchy.cc_l3cache.overallMshrMissRate::processor.cores4.core.data     0.996465                       # mshr miss ratio for overall accesses (Ratio)
board.cache_hierarchy.cc_l3cache.overallMshrMissRate::processor.cores5.core.data     0.996423                       # mshr miss ratio for overall accesses (Ratio)
board.cache_hierarchy.cc_l3cache.overallMshrMissRate::processor.cores6.core.data     0.996166                       # mshr miss ratio for overall accesses (Ratio)
board.cache_hierarchy.cc_l3cache.overallMshrMissRate::processor.cores7.core.inst            1                       # mshr miss ratio for overall accesses (Ratio)
board.cache_hierarchy.cc_l3cache.overallMshrMissRate::processor.cores7.core.data     0.996729                       # mshr miss ratio for overall accesses (Ratio)
board.cache_hierarchy.cc_l3cache.overallMshrMissRate::total     0.110635                       # mshr miss ratio for overall accesses (Ratio)
board.cache_hierarchy.cc_l3cache.demandAvgMshrMissLatency::cache_hierarchy.l1dcaches0.prefetcher 198766.441494                       # average overall mshr miss latency ((Tick/Count))
board.cache_hierarchy.cc_l3cache.demandAvgMshrMissLatency::cache_hierarchy.l1dcaches1.prefetcher 199151.959117                       # average overall mshr miss latency ((Tick/Count))
board.cache_hierarchy.cc_l3cache.demandAvgMshrMissLatency::cache_hierarchy.l1dcaches2.prefetcher 198740.098894                       # average overall mshr miss latency ((Tick/Count))
board.cache_hierarchy.cc_l3cache.demandAvgMshrMissLatency::cache_hierarchy.l1dcaches3.prefetcher 199421.525131                       # average overall mshr miss latency ((Tick/Count))
board.cache_hierarchy.cc_l3cache.demandAvgMshrMissLatency::cache_hierarchy.l1dcaches4.prefetcher 198776.475530                       # average overall mshr miss latency ((Tick/Count))
board.cache_hierarchy.cc_l3cache.demandAvgMshrMissLatency::cache_hierarchy.l1dcaches5.prefetcher 200255.889051                       # average overall mshr miss latency ((Tick/Count))
board.cache_hierarchy.cc_l3cache.demandAvgMshrMissLatency::cache_hierarchy.l1dcaches6.prefetcher 198932.369131                       # average overall mshr miss latency ((Tick/Count))
board.cache_hierarchy.cc_l3cache.demandAvgMshrMissLatency::cache_hierarchy.l1dcaches7.prefetcher 199391.285616                       # average overall mshr miss latency ((Tick/Count))
board.cache_hierarchy.cc_l3cache.demandAvgMshrMissLatency::cache_hierarchy.l2cache.prefetcher 204758.181998                       # average overall mshr miss latency ((Tick/Count))
board.cache_hierarchy.cc_l3cache.demandAvgMshrMissLatency::processor.cores0.core.inst 54256.965261                       # average overall mshr miss latency ((Tick/Count))
board.cache_hierarchy.cc_l3cache.demandAvgMshrMissLatency::processor.cores0.core.data 170055.404855                       # average overall mshr miss latency ((Tick/Count))
board.cache_hierarchy.cc_l3cache.demandAvgMshrMissLatency::processor.cores1.core.inst 64959.975000                       # average overall mshr miss latency ((Tick/Count))
board.cache_hierarchy.cc_l3cache.demandAvgMshrMissLatency::processor.cores1.core.data 171989.298570                       # average overall mshr miss latency ((Tick/Count))
board.cache_hierarchy.cc_l3cache.demandAvgMshrMissLatency::processor.cores2.core.inst 50199.750000                       # average overall mshr miss latency ((Tick/Count))
board.cache_hierarchy.cc_l3cache.demandAvgMshrMissLatency::processor.cores2.core.data 172220.996522                       # average overall mshr miss latency ((Tick/Count))
board.cache_hierarchy.cc_l3cache.demandAvgMshrMissLatency::processor.cores3.core.inst        51837                       # average overall mshr miss latency ((Tick/Count))
board.cache_hierarchy.cc_l3cache.demandAvgMshrMissLatency::processor.cores3.core.data 172291.611934                       # average overall mshr miss latency ((Tick/Count))
board.cache_hierarchy.cc_l3cache.demandAvgMshrMissLatency::processor.cores4.core.data 172251.478610                       # average overall mshr miss latency ((Tick/Count))
[...]
board.processor.cores7.core.cc_buffer.execute_buffer_occupancy_histogram::405            0      0.00%    100.00% # Distribution of decode buffer occupancy (Unspecified)
board.processor.cores7.core.cc_buffer.execute_buffer_occupancy_histogram::406            0      0.00%    100.00% # Distribution of decode buffer occupancy (Unspecified)
board.processor.cores7.core.cc_buffer.execute_buffer_occupancy_histogram::407            0      0.00%    100.00% # Distribution of decode buffer occupancy (Unspecified)
board.processor.cores7.core.cc_buffer.execute_buffer_occupancy_histogram::408            0      0.00%    100.00% # Distribution of decode buffer occupancy (Unspecified)
board.processor.cores7.core.cc_buffer.execute_buffer_occupancy_histogram::409            0      0.00%    100.00% # Distribution of decode buffer occupancy (Unspecified)
board.processor.cores7.core.cc_buffer.execute_buffer_occupancy_histogram::410            0      0.00%    100.00% # Distribution of decode buffer occupancy (Unspecified)
board.processor.cores7.core.cc_buffer.execute_buffer_occupancy_histogram::411            0      0.00%    100.00% # Distribution of decode buffer occupancy (Unspecified)
board.processor.cores7.core.cc_buffer.execute_buffer_occupancy_histogram::412            0      0.00%    100.00% # Distribution of decode buffer occupancy (Unspecified)
board.processor.cores7.core.cc_buffer.execute_buffer_occupancy_histogram::413            0      0.00%    100.00% # Distribution of decode buffer occupancy (Unspecified)
board.processor.cores7.core.cc_buffer.execute_buffer_occupancy_histogram::414            0      0.00%    100.00% # Distribution of decode buffer occupancy (Unspecified)
board.processor.cores7.core.cc_buffer.execute_buffer_occupancy_histogram::415            0      0.00%    100.00% # Distribution of decode buffer occupancy (Unspecified)
board.processor.cores7.core.cc_buffer.execute_buffer_occupancy_histogram::416            0      0.00%    100.00% # Distribution of decode buffer occupancy (Unspecified)
board.processor.cores7.core.cc_buffer.execute_buffer_occupancy_histogram::417            0      0.00%    100.00% # Distribution of decode buffer occupancy (Unspecified)
board.processor.cores7.core.cc_buffer.execute_buffer_occupancy_histogram::418            0      0.00%    100.00% # Distribution of decode buffer occupancy (Unspecified)
board.processor.cores7.core.cc_buffer.execute_buffer_occupancy_histogram::419            0      0.00%    100.00% # Distribution of decode buffer occupancy (Unspecified)
board.processor.cores7.core.cc_buffer.execute_buffer_occupancy_histogram::420            0      0.00%    100.00% # Distribution of decode buffer occupancy (Unspecified)
board.processor.cores7.core.cc_buffer.execute_buffer_occupancy_histogram::421            0      0.00%    100.00% # Distribution of decode buffer occupancy (Unspecified)
board.processor.cores7.core.cc_buffer.execute_buffer_occupancy_histogram::422            0      0.00%    100.00% # Distribution of decode buffer occupancy (Unspecified)
board.processor.cores7.core.cc_buffer.execute_buffer_occupancy_histogram::423            0      0.00%    100.00% # Distribution of decode buffer occupancy (Unspecified)
board.processor.cores7.core.cc_buffer.execute_buffer_occupancy_histogram::424            0      0.00%    100.00% # Distribution of decode buffer occupancy (Unspecified)
board.processor.cores7.core.cc_buffer.execute_buffer_occupancy_histogram::425            0      0.00%    100.00% # Distribution of decode buffer occupancy (Unspecified)
board.processor.cores7.core.cc_buffer.execute_buffer_occupancy_histogram::426            0      0.00%    100.00% # Distribution of decode buffer occupancy (Unspecified)
board.processor.cores7.core.cc_buffer.execute_buffer_occupancy_histogram::427            0      0.00%    100.00% # Distribution of decode buffer occupancy (Unspecified)
board.processor.cores7.core.cc_buffer.execute_buffer_occupancy_histogram::428            0      0.00%    100.00% # Distribution of decode buffer occupancy (Unspecified)
board.processor.cores7.core.cc_buffer.execute_buffer_occupancy_histogram::429            0      0.00%    100.00% # Distribution of decode buffer occupancy (Unspecified)
board.processor.cores7.core.cc_buffer.execute_buffer_occupancy_histogram::430            0      0.00%    100.00% # Distribution of decode buffer occupancy (Unspecified)
board.processor.cores7.core.cc_buffer.execute_buffer_occupancy_histogram::431            0      0.00%    100.00% # Distribution of decode buffer occupancy (Unspecified)
board.processor.cores7.core.cc_buffer.execute_buffer_occupancy_histogram::432            0      0.00%    100.00% # Distribution of decode buffer occupancy (Unspecified)
board.processor.cores7.core.cc_buffer.execute_buffer_occupancy_histogram::433            0      0.00%    100.00% # Distribution of decode buffer occupancy (Unspecified)
board.processor.cores7.core.cc_buffer.execute_buffer_occupancy_histogram::434            0      0.00%    100.00% # Distribution of decode buffer occupancy (Unspecified)
board.processor.cores7.core.cc_buffer.execute_buffer_occupancy_histogram::435            0      0.00%    100.00% # Distribution of decode buffer occupancy (Unspecified)
board.processor.cores7.core.cc_buffer.execute_buffer_occupancy_histogram::436            0      0.00%    100.00% # Distribution of decode buffer occupancy (Unspecified)
board.processor.cores7.core.cc_buffer.execute_buffer_occupancy_histogram::437            0      0.00%    100.00% # Distribution of decode buffer occupancy (Unspecified)
board.processor.cores7.core.cc_buffer.execute_buffer_occupancy_histogram::438            0      0.00%    100.00% # Distribution of decode buffer occupancy (Unspecified)
board.processor.cores7.core.cc_buffer.execute_buffer_occupancy_histogram::439            0      0.00%    100.00% # Distribution of decode buffer occupancy (Unspecified)
board.processor.cores7.core.cc_buffer.execute_buffer_occupancy_histogram::440            0      0.00%    100.00% # Distribution of decode buffer occupancy (Unspecified)
board.processor.cores7.core.cc_buffer.execute_buffer_occupancy_histogram::441            0      0.00%    100.00% # Distribution of decode buffer occupancy (Unspecified)
board.processor.cores7.core.cc_buffer.execute_buffer_occupancy_histogram::442            0      0.00%    100.00% # Distribution of decode buffer occupancy (Unspecified)
board.processor.cores7.core.cc_buffer.execute_buffer_occupancy_histogram::443            0      0.00%    100.00% # Distribution of decode buffer occupancy (Unspecified)
board.processor.cores7.core.cc_buffer.execute_buffer_occupancy_histogram::444            0      0.00%    100.00% # Distribution of decode buffer occupancy (Unspecified)
board.processor.cores7.core.cc_buffer.execute_buffer_occupancy_histogram::445            0      0.00%    100.00% # Distribution of decode buffer occupancy (Unspecified)
board.processor.cores7.core.cc_buffer.execute_buffer_occupancy_histogram::446            0      0.00%    100.00% # Distribution of decode buffer occupancy (Unspecified)
board.processor.cores7.core.cc_buffer.execute_buffer_occupancy_histogram::447            0      0.00%    100.00% # Distribution of decode buffer occupancy (Unspecified)
board.processor.cores7.core.cc_buffer.execute_buffer_occupancy_histogram::448            0      0.00%    100.00% # Distribution of decode buffer occupancy (Unspecified)
board.processor.cores7.core.cc_buffer.execute_buffer_occupancy_histogram::449            0      0.00%    100.00% # Distribution of decode buffer occupancy (Unspecified)
board.processor.cores7.core.cc_buffer.execute_buffer_occupancy_histogram::450            0      0.00%    100.00% # Distribution of decode buffer occupancy (Unspecified)
board.processor.cores7.core.cc_buffer.execute_buffer_occupancy_histogram::451            0      0.00%    100.00% # Distribution of decode buffer occupancy (Unspecified)
board.processor.cores7.core.cc_buffer.execute_buffer_occupancy_histogram::452            0      0.00%    100.00% # Distribution of decode buffer occupancy (Unspecified)
board.processor.cores7.core.cc_buffer.execute_buffer_occupancy_histogram::453            0      0.00%    100.00% # Distribution of decode buffer occupancy (Unspecified)
board.processor.cores7.core.cc_buffer.execute_buffer_occupancy_histogram::454            0      0.00%    100.00% # Distribution of decode buffer occupancy (Unspecified)
board.processor.cores7.core.cc_buffer.execute_buffer_occupancy_histogram::455            0      0.00%    100.00% # Distribution of decode buffer occupancy (Unspecified)
board.processor.cores7.core.cc_buffer.execute_buffer_occupancy_histogram::456            0      0.00%    100.00% # Distribution of decode buffer occupancy (Unspecified)
board.processor.cores7.core.cc_buffer.execute_buffer_occupancy_histogram::457            0      0.00%    100.00% # Distribution of decode buffer occupancy (Unspecified)
board.processor.cores7.core.cc_buffer.execute_buffer_occupancy_histogram::458            0      0.00%    100.00% # Distribution of decode buffer occupancy (Unspecified)
board.processor.cores7.core.cc_buffer.execute_buffer_occupancy_histogram::459            0      0.00%    100.00% # Distribution of decode buffer occupancy (Unspecified)
board.processor.cores7.core.cc_buffer.execute_buffer_occupancy_histogram::460            0      0.00%    100.00% # Distribution of decode buffer occupancy (Unspecified)
board.processor.cores7.core.cc_buffer.execute_buffer_occupancy_histogram::461            0      0.00%    100.00% # Distribution of decode buffer occupancy (Unspecified)
board.processor.cores7.core.cc_buffer.execute_buffer_occupancy_histogram::462            0      0.00%    100.00% # Distribution of decode buffer occupancy (Unspecified)
board.processor.cores7.core.cc_buffer.execute_buffer_occupancy_histogram::463            0      0.00%    100.00% # Distribution of decode buffer occupancy (Unspecified)
board.processor.cores7.core.cc_buffer.execute_buffer_occupancy_histogram::464            0      0.00%    100.00% # Distribution of decode buffer occupancy (Unspecified)
board.processor.cores7.core.cc_buffer.execute_buffer_occupancy_histogram::465            0      0.00%    100.00% # Distribution of decode buffer occupancy (Unspecified)
board.processor.cores7.core.cc_buffer.execute_buffer_occupancy_histogram::466            0      0.00%    100.00% # Distribution of decode buffer occupancy (Unspecified)
board.processor.cores7.core.cc_buffer.execute_buffer_occupancy_histogram::467            0      0.00%    100.00% # Distribution of decode buffer occupancy (Unspecified)
board.processor.cores7.core.cc_buffer.execute_buffer_occupancy_histogram::468            0      0.00%    100.00% # Distribution of decode buffer occupancy (Unspecified)
board.processor.cores7.core.cc_buffer.execute_buffer_occupancy_histogram::469            0      0.00%    100.00% # Distribution of decode buffer occupancy (Unspecified)
board.processor.cores7.core.cc_buffer.execute_buffer_occupancy_histogram::470            0      0.00%    100.00% # Distribution of decode buffer occupancy (Unspecified)
board.processor.cores7.core.cc_buffer.execute_buffer_occupancy_histogram::471            0      0.00%    100.00% # Distribution of decode buffer occupancy (Unspecified)
board.processor.cores7.core.cc_buffer.execute_buffer_occupancy_histogram::472            0      0.00%    100.00% # Distribution of decode buffer occupancy (Unspecified)
board.processor.cores7.core.cc_buffer.execute_buffer_occupancy_histogram::473            0      0.00%    100.00% # Distribution of decode buffer occupancy (Unspecified)
board.processor.cores7.core.cc_buffer.execute_buffer_occupancy_histogram::474            0      0.00%    100.00% # Distribution of decode buffer occupancy (Unspecified)
board.processor.cores7.core.cc_buffer.execute_buffer_occupancy_histogram::475            0      0.00%    100.00% # Distribution of decode buffer occupancy (Unspecified)
board.processor.cores7.core.cc_buffer.execute_buffer_occupancy_histogram::476            0      0.00%    100.00% # Distribution of decode buffer occupancy (Unspecified)
board.processor.cores7.core.cc_buffer.execute_buffer_occupancy_histogram::477            0      0.00%    100.00% # Distribution of decode buffer occupancy (Unspecified)
board.processor.cores7.core.cc_buffer.execute_buffer_occupancy_histogram::478            0      0.00%    100.00% # Distribution of decode buffer occupancy (Unspecified)
board.processor.cores7.core.cc_buffer.execute_buffer_occupancy_histogram::479            0      0.00%    100.00% # Distribution of decode buffer occupancy (Unspecified)
board.processor.cores7.core.cc_buffer.execute_buffer_occupancy_histogram::480            0      0.00%    100.00% # Distribution of decode buffer occupancy (Unspecified)
board.processor.cores7.core.cc_buffer.execute_buffer_occupancy_histogram::481            0      0.00%    100.00% # Distribution of decode buffer occupancy (Unspecified)
board.processor.cores7.core.cc_buffer.execute_buffer_occupancy_histogram::482            0      0.00%    100.00% # Distribution of decode buffer occupancy (Unspecified)
board.processor.cores7.core.cc_buffer.execute_buffer_occupancy_histogram::483            0      0.00%    100.00% # Distribution of decode buffer occupancy (Unspecified)
board.processor.cores7.core.cc_buffer.execute_buffer_occupancy_histogram::484            0      0.00%    100.00% # Distribution of decode buffer occupancy (Unspecified)
board.processor.cores7.core.cc_buffer.execute_buffer_occupancy_histogram::485            0      0.00%    100.00% # Distribution of decode buffer occupancy (Unspecified)
board.processor.cores7.core.cc_buffer.execute_buffer_occupancy_histogram::486            0      0.00%    100.00% # Distribution of decode buffer occupancy (Unspecified)
board.processor.cores7.core.cc_buffer.execute_buffer_occupancy_histogram::487            0      0.00%    100.00% # Distribution of decode buffer occupancy (Unspecified)
board.processor.cores7.core.cc_buffer.execute_buffer_occupancy_histogram::488            0      0.00%    100.00% # Distribution of decode buffer occupancy (Unspecified)
board.processor.cores7.core.cc_buffer.execute_buffer_occupancy_histogram::489            0      0.00%    100.00% # Distribution of decode buffer occupancy (Unspecified)
board.processor.cores7.core.cc_buffer.execute_buffer_occupancy_histogram::490            0      0.00%    100.00% # Distribution of decode buffer occupancy (Unspecified)
board.processor.cores7.core.cc_buffer.execute_buffer_occupancy_histogram::491            0      0.00%    100.00% # Distribution of decode buffer occupancy (Unspecified)
board.processor.cores7.core.cc_buffer.execute_buffer_occupancy_histogram::492            0      0.00%    100.00% # Distribution of decode buffer occupancy (Unspecified)
board.processor.cores7.core.cc_buffer.execute_buffer_occupancy_histogram::493            0      0.00%    100.00% # Distribution of decode buffer occupancy (Unspecified)
board.processor.cores7.core.cc_buffer.execute_buffer_occupancy_histogram::494            0      0.00%    100.00% # Distribution of decode buffer occupancy (Unspecified)
board.processor.cores7.core.cc_buffer.execute_buffer_occupancy_histogram::495            0      0.00%    100.00% # Distribution of decode buffer occupancy (Unspecified)
board.processor.cores7.core.cc_buffer.execute_buffer_occupancy_histogram::496            0      0.00%    100.00% # Distribution of decode buffer occupancy (Unspecified)
board.processor.cores7.core.cc_buffer.execute_buffer_occupancy_histogram::497            0      0.00%    100.00% # Distribution of decode buffer occupancy (Unspecified)
board.processor.cores7.core.cc_buffer.execute_buffer_occupancy_histogram::498            0      0.00%    100.00% # Distribution of decode buffer occupancy (Unspecified)
board.processor.cores7.core.cc_buffer.execute_buffer_occupancy_histogram::499            0      0.00%    100.00% # Distribution of decode buffer occupancy (Unspecified)
board.processor.cores7.core.cc_buffer.execute_buffer_occupancy_histogram::500            0      0.00%    100.00% # Distribution of decode buffer occupancy (Unspecified)
board.processor.cores7.core.cc_buffer.execute_buffer_occupancy_histogram::501            0      0.00%    100.00% # Distribution of decode buffer occupancy (Unspecified)
board.processor.cores7.core.cc_buffer.execute_buffer_occupancy_histogram::502            0      0.00%    100.00% # Distribution of decode buffer occupancy (Unspecified)
board.processor.cores7.core.cc_buffer.execute_buffer_occupancy_histogram::503            0      0.00%    100.00% # Distribution of decode buffer occupancy (Unspecified)
board.processor.cores7.core.cc_buffer.execute_buffer_occupancy_histogram::504            0      0.00%    100.00% # Distribution of decode buffer occupancy (Unspecified)
board.processor.cores7.core.cc_buffer.execute_buffer_occupancy_histogram::505            0      0.00%    100.00% # Distribution of decode buffer occupancy (Unspecified)
board.processor.cores7.core.cc_buffer.execute_buffer_occupancy_histogram::506            0      0.00%    100.00% # Distribution of decode buffer occupancy (Unspecified)
board.processor.cores7.core.cc_buffer.execute_buffer_occupancy_histogram::507            0      0.00%    100.00% # Distribution of decode buffer occupancy (Unspecified)
board.processor.cores7.core.cc_buffer.execute_buffer_occupancy_histogram::508            0      0.00%    100.00% # Distribution of decode buffer occupancy (Unspecified)
board.processor.cores7.core.cc_buffer.execute_buffer_occupancy_histogram::509            0      0.00%    100.00% # Distribution of decode buffer occupancy (Unspecified)
board.processor.cores7.core.cc_buffer.execute_buffer_occupancy_histogram::510            0      0.00%    100.00% # Distribution of decode buffer occupancy (Unspecified)
board.processor.cores7.core.cc_buffer.execute_buffer_occupancy_histogram::511            0      0.00%    100.00% # Distribution of decode buffer occupancy (Unspecified)
board.processor.cores7.core.cc_buffer.execute_buffer_occupancy_histogram::512            0      0.00%    100.00% # Distribution of decode buffer occupancy (Unspecified)
board.processor.cores7.core.cc_buffer.execute_buffer_occupancy_histogram::overflows            0      0.00%    100.00% # Distribution of decode buffer occupancy (Unspecified)
board.processor.cores7.core.cc_buffer.execute_buffer_occupancy_histogram::min_value            0                       # Distribution of decode buffer occupancy (Unspecified)
board.processor.cores7.core.cc_buffer.execute_buffer_occupancy_histogram::max_value          141                       # Distribution of decode buffer occupancy (Unspecified)
board.processor.cores7.core.cc_buffer.execute_buffer_occupancy_histogram::total     12233008                       # Distribution of decode buffer occupancy (Unspecified)
board.processor.cores7.core.cc_buffer.execute_old_inst_not_finished          286                       # Number of times execute buffer paused due to oldest insts not being finished executing (Unspecified)
board.processor.cores7.core.cc_buffer.num_fault_insts           35                       # Number of fault insts executed (Unspecified)
board.processor.cores7.core.cc_buffer.num_unknown_insts            0                       # Number of unknown insts executed (Unspecified)
board.processor.cores7.core.cc_buffer.ooo_stall_signals            0                       # Number of cycles stalled due to buffer (Unspecified)
board.processor.cores7.core.cc_buffer.regfile_bandwidth_reached           32                       # Number of times execute buffer paused due to bandwidth reached (Unspecified)
board.processor.cores7.core.cc_buffer.regfile_insts_processed      2515240                       # Number of insts regfile has processes (Unspecified)

---------- End Simulation Statistics   ----------
