
---------- Begin Simulation Statistics ----------
simSeconds                                   0.000559                       # Number of seconds simulated (Second)
simTicks                                    559193247                       # Number of ticks simulated (Tick)
finalTick                                   559193247                       # Number of ticks from beginning of simulation (restored from checkpoints and never reset) (Tick)
simFreq                                  1000000000000                       # The number of ticks per simulated second ((Tick/Second))
hostSeconds                                     74.12                       # Real time elapsed on the host (Second)
hostTickRate                                  7544870                       # The number of ticks simulated per host second (ticks/s) ((Tick/Second))
hostMemory                                    8881064                       # Number of bytes of host memory used (Byte)
simInsts                                      2684423                       # Number of instructions simulated (Count)
simOps                                        4090667                       # Number of ops (including micro ops) simulated (Count)
hostInstRate                                    36219                       # Simulator instruction rate (inst/s) ((Count/Second))
hostOpRate                                      55193                       # Simulator op (including micro ops) rate (op/s) ((Count/Second))
board.cache_hierarchy.cc_l3cache.demandHits::cache_hierarchy.l1dcaches0.prefetcher           12                       # number of demand (read+write) hits (Count)
board.cache_hierarchy.cc_l3cache.demandHits::cache_hierarchy.l2cache.prefetcher            1                       # number of demand (read+write) hits (Count)
board.cache_hierarchy.cc_l3cache.demandHits::processor.cores0.core.data            1                       # number of demand (read+write) hits (Count)
board.cache_hierarchy.cc_l3cache.demandHits::processor.cores0.core.cc_buffer      1655580                       # number of demand (read+write) hits (Count)
board.cache_hierarchy.cc_l3cache.demandHits::total      1655594                       # number of demand (read+write) hits (Count)
board.cache_hierarchy.cc_l3cache.overallHits::cache_hierarchy.l1dcaches0.prefetcher           12                       # number of overall hits (Count)
board.cache_hierarchy.cc_l3cache.overallHits::cache_hierarchy.l2cache.prefetcher            1                       # number of overall hits (Count)
board.cache_hierarchy.cc_l3cache.overallHits::processor.cores0.core.data            1                       # number of overall hits (Count)
board.cache_hierarchy.cc_l3cache.overallHits::processor.cores0.core.cc_buffer      1655580                       # number of overall hits (Count)
board.cache_hierarchy.cc_l3cache.overallHits::total      1655594                       # number of overall hits (Count)
board.cache_hierarchy.cc_l3cache.demandMisses::cache_hierarchy.l1dcaches0.prefetcher           28                       # number of demand (read+write) misses (Count)
board.cache_hierarchy.cc_l3cache.demandMisses::cache_hierarchy.l2cache.prefetcher           55                       # number of demand (read+write) misses (Count)
board.cache_hierarchy.cc_l3cache.demandMisses::processor.cores0.core.inst          444                       # number of demand (read+write) misses (Count)
board.cache_hierarchy.cc_l3cache.demandMisses::processor.cores0.core.data          162                       # number of demand (read+write) misses (Count)
board.cache_hierarchy.cc_l3cache.demandMisses::processor.cores0.core.cc_buffer          394                       # number of demand (read+write) misses (Count)
board.cache_hierarchy.cc_l3cache.demandMisses::total         1083                       # number of demand (read+write) misses (Count)
board.cache_hierarchy.cc_l3cache.overallMisses::cache_hierarchy.l1dcaches0.prefetcher           28                       # number of overall misses (Count)
board.cache_hierarchy.cc_l3cache.overallMisses::cache_hierarchy.l2cache.prefetcher           55                       # number of overall misses (Count)
board.cache_hierarchy.cc_l3cache.overallMisses::processor.cores0.core.inst          444                       # number of overall misses (Count)
board.cache_hierarchy.cc_l3cache.overallMisses::processor.cores0.core.data          162                       # number of overall misses (Count)
board.cache_hierarchy.cc_l3cache.overallMisses::processor.cores0.core.cc_buffer          394                       # number of overall misses (Count)
board.cache_hierarchy.cc_l3cache.overallMisses::total         1083                       # number of overall misses (Count)
board.cache_hierarchy.cc_l3cache.demandMissLatency::cache_hierarchy.l1dcaches0.prefetcher      2799198                       # number of demand (read+write) miss ticks (Tick)
board.cache_hierarchy.cc_l3cache.demandMissLatency::cache_hierarchy.l2cache.prefetcher      4449213                       # number of demand (read+write) miss ticks (Tick)
board.cache_hierarchy.cc_l3cache.demandMissLatency::processor.cores0.core.inst     24120189                       # number of demand (read+write) miss ticks (Tick)
board.cache_hierarchy.cc_l3cache.demandMissLatency::processor.cores0.core.data     10004985                       # number of demand (read+write) miss ticks (Tick)
board.cache_hierarchy.cc_l3cache.demandMissLatency::total     41373585                       # number of demand (read+write) miss ticks (Tick)
board.cache_hierarchy.cc_l3cache.overallMissLatency::cache_hierarchy.l1dcaches0.prefetcher      2799198                       # number of overall miss ticks (Tick)
board.cache_hierarchy.cc_l3cache.overallMissLatency::cache_hierarchy.l2cache.prefetcher      4449213                       # number of overall miss ticks (Tick)
board.cache_hierarchy.cc_l3cache.overallMissLatency::processor.cores0.core.inst     24120189                       # number of overall miss ticks (Tick)
board.cache_hierarchy.cc_l3cache.overallMissLatency::processor.cores0.core.data     10004985                       # number of overall miss ticks (Tick)
board.cache_hierarchy.cc_l3cache.overallMissLatency::total     41373585                       # number of overall miss ticks (Tick)
board.cache_hierarchy.cc_l3cache.demandAccesses::cache_hierarchy.l1dcaches0.prefetcher           40                       # number of demand (read+write) accesses (Count)
board.cache_hierarchy.cc_l3cache.demandAccesses::cache_hierarchy.l2cache.prefetcher           56                       # number of demand (read+write) accesses (Count)
board.cache_hierarchy.cc_l3cache.demandAccesses::processor.cores0.core.inst          444                       # number of demand (read+write) accesses (Count)
board.cache_hierarchy.cc_l3cache.demandAccesses::processor.cores0.core.data          163                       # number of demand (read+write) accesses (Count)
board.cache_hierarchy.cc_l3cache.demandAccesses::processor.cores0.core.cc_buffer      1655974                       # number of demand (read+write) accesses (Count)
board.cache_hierarchy.cc_l3cache.demandAccesses::total      1656677                       # number of demand (read+write) accesses (Count)
board.cache_hierarchy.cc_l3cache.overallAccesses::cache_hierarchy.l1dcaches0.prefetcher           40                       # number of overall (read+write) accesses (Count)
board.cache_hierarchy.cc_l3cache.overallAccesses::cache_hierarchy.l2cache.prefetcher           56                       # number of overall (read+write) accesses (Count)
board.cache_hierarchy.cc_l3cache.overallAccesses::processor.cores0.core.inst          444                       # number of overall (read+write) accesses (Count)
board.cache_hierarchy.cc_l3cache.overallAccesses::processor.cores0.core.data          163                       # number of overall (read+write) accesses (Count)
board.cache_hierarchy.cc_l3cache.overallAccesses::processor.cores0.core.cc_buffer      1655974                       # number of overall (read+write) accesses (Count)
board.cache_hierarchy.cc_l3cache.overallAccesses::total      1656677                       # number of overall (read+write) accesses (Count)
board.cache_hierarchy.cc_l3cache.demandMissRate::cache_hierarchy.l1dcaches0.prefetcher     0.700000                       # miss rate for demand accesses (Ratio)
board.cache_hierarchy.cc_l3cache.demandMissRate::cache_hierarchy.l2cache.prefetcher     0.982143                       # miss rate for demand accesses (Ratio)
board.cache_hierarchy.cc_l3cache.demandMissRate::processor.cores0.core.inst            1                       # miss rate for demand accesses (Ratio)
board.cache_hierarchy.cc_l3cache.demandMissRate::processor.cores0.core.data     0.993865                       # miss rate for demand accesses (Ratio)
board.cache_hierarchy.cc_l3cache.demandMissRate::processor.cores0.core.cc_buffer     0.000238                       # miss rate for demand accesses (Ratio)
board.cache_hierarchy.cc_l3cache.demandMissRate::total     0.000654                       # miss rate for demand accesses (Ratio)
board.cache_hierarchy.cc_l3cache.overallMissRate::cache_hierarchy.l1dcaches0.prefetcher     0.700000                       # miss rate for overall accesses (Ratio)
board.cache_hierarchy.cc_l3cache.overallMissRate::cache_hierarchy.l2cache.prefetcher     0.982143                       # miss rate for overall accesses (Ratio)
board.cache_hierarchy.cc_l3cache.overallMissRate::processor.cores0.core.inst            1                       # miss rate for overall accesses (Ratio)
board.cache_hierarchy.cc_l3cache.overallMissRate::processor.cores0.core.data     0.993865                       # miss rate for overall accesses (Ratio)
board.cache_hierarchy.cc_l3cache.overallMissRate::processor.cores0.core.cc_buffer     0.000238                       # miss rate for overall accesses (Ratio)
board.cache_hierarchy.cc_l3cache.overallMissRate::total     0.000654                       # miss rate for overall accesses (Ratio)
board.cache_hierarchy.cc_l3cache.demandAvgMissLatency::cache_hierarchy.l1dcaches0.prefetcher 99971.357143                       # average overall miss latency in ticks ((Tick/Count))
board.cache_hierarchy.cc_l3cache.demandAvgMissLatency::cache_hierarchy.l2cache.prefetcher 80894.781818                       # average overall miss latency in ticks ((Tick/Count))
board.cache_hierarchy.cc_l3cache.demandAvgMissLatency::processor.cores0.core.inst 54324.750000                       # average overall miss latency in ticks ((Tick/Count))
board.cache_hierarchy.cc_l3cache.demandAvgMissLatency::processor.cores0.core.data 61759.166667                       # average overall miss latency in ticks ((Tick/Count))
board.cache_hierarchy.cc_l3cache.demandAvgMissLatency::total 38202.756233                       # average overall miss latency in ticks ((Tick/Count))
board.cache_hierarchy.cc_l3cache.overallAvgMissLatency::cache_hierarchy.l1dcaches0.prefetcher 99971.357143                       # average overall miss latency ((Tick/Count))
board.cache_hierarchy.cc_l3cache.overallAvgMissLatency::cache_hierarchy.l2cache.prefetcher 80894.781818                       # average overall miss latency ((Tick/Count))
board.cache_hierarchy.cc_l3cache.overallAvgMissLatency::processor.cores0.core.inst 54324.750000                       # average overall miss latency ((Tick/Count))
board.cache_hierarchy.cc_l3cache.overallAvgMissLatency::processor.cores0.core.data 61759.166667                       # average overall miss latency ((Tick/Count))
board.cache_hierarchy.cc_l3cache.overallAvgMissLatency::total 38202.756233                       # average overall miss latency ((Tick/Count))
board.cache_hierarchy.cc_l3cache.blockedCycles::no_mshrs            0                       # number of cycles access was blocked (Cycle)
board.cache_hierarchy.cc_l3cache.blockedCycles::no_targets            0                       # number of cycles access was blocked (Cycle)
board.cache_hierarchy.cc_l3cache.blockedCauses::no_mshrs            0                       # number of times access was blocked (Count)
board.cache_hierarchy.cc_l3cache.blockedCauses::no_targets            0                       # number of times access was blocked (Count)
board.cache_hierarchy.cc_l3cache.avgBlocked::no_mshrs          nan                       # average number of cycles each access was blocked ((Cycle/Count))
board.cache_hierarchy.cc_l3cache.avgBlocked::no_targets          nan                       # average number of cycles each access was blocked ((Cycle/Count))
board.cache_hierarchy.cc_l3cache.demandMshrHits::cache_hierarchy.l2cache.prefetcher            3                       # number of demand (read+write) MSHR hits (Count)
board.cache_hierarchy.cc_l3cache.demandMshrHits::total            3                       # number of demand (read+write) MSHR hits (Count)
board.cache_hierarchy.cc_l3cache.overallMshrHits::cache_hierarchy.l2cache.prefetcher            3                       # number of overall MSHR hits (Count)
board.cache_hierarchy.cc_l3cache.overallMshrHits::total            3                       # number of overall MSHR hits (Count)
board.cache_hierarchy.cc_l3cache.demandMshrMisses::cache_hierarchy.l1dcaches0.prefetcher           28                       # number of demand (read+write) MSHR misses (Count)
board.cache_hierarchy.cc_l3cache.demandMshrMisses::cache_hierarchy.l2cache.prefetcher           52                       # number of demand (read+write) MSHR misses (Count)
board.cache_hierarchy.cc_l3cache.demandMshrMisses::processor.cores0.core.inst          444                       # number of demand (read+write) MSHR misses (Count)
board.cache_hierarchy.cc_l3cache.demandMshrMisses::processor.cores0.core.data          162                       # number of demand (read+write) MSHR misses (Count)
board.cache_hierarchy.cc_l3cache.demandMshrMisses::total          686                       # number of demand (read+write) MSHR misses (Count)
board.cache_hierarchy.cc_l3cache.overallMshrMisses::cache_hierarchy.cc_l3cache.prefetcher           32                       # number of overall MSHR misses (Count)
board.cache_hierarchy.cc_l3cache.overallMshrMisses::cache_hierarchy.l1dcaches0.prefetcher           28                       # number of overall MSHR misses (Count)
board.cache_hierarchy.cc_l3cache.overallMshrMisses::cache_hierarchy.l2cache.prefetcher           52                       # number of overall MSHR misses (Count)
board.cache_hierarchy.cc_l3cache.overallMshrMisses::processor.cores0.core.inst          444                       # number of overall MSHR misses (Count)
board.cache_hierarchy.cc_l3cache.overallMshrMisses::processor.cores0.core.data          162                       # number of overall MSHR misses (Count)
board.cache_hierarchy.cc_l3cache.overallMshrMisses::total          718                       # number of overall MSHR misses (Count)
board.cache_hierarchy.cc_l3cache.demandMshrMissLatency::cache_hierarchy.l1dcaches0.prefetcher      2789874                       # number of demand (read+write) MSHR miss ticks (Tick)
board.cache_hierarchy.cc_l3cache.demandMshrMissLatency::cache_hierarchy.l2cache.prefetcher      4346982                       # number of demand (read+write) MSHR miss ticks (Tick)
board.cache_hierarchy.cc_l3cache.demandMshrMissLatency::processor.cores0.core.inst     23973003                       # number of demand (read+write) MSHR miss ticks (Tick)
board.cache_hierarchy.cc_l3cache.demandMshrMissLatency::processor.cores0.core.data      9951039                       # number of demand (read+write) MSHR miss ticks (Tick)
board.cache_hierarchy.cc_l3cache.demandMshrMissLatency::total     41060898                       # number of demand (read+write) MSHR miss ticks (Tick)
board.cache_hierarchy.cc_l3cache.overallMshrMissLatency::cache_hierarchy.cc_l3cache.prefetcher      1832472                       # number of overall MSHR miss ticks (Tick)
board.cache_hierarchy.cc_l3cache.overallMshrMissLatency::cache_hierarchy.l1dcaches0.prefetcher      2789874                       # number of overall MSHR miss ticks (Tick)
board.cache_hierarchy.cc_l3cache.overallMshrMissLatency::cache_hierarchy.l2cache.prefetcher      4346982                       # number of overall MSHR miss ticks (Tick)
board.cache_hierarchy.cc_l3cache.overallMshrMissLatency::processor.cores0.core.inst     23973003                       # number of overall MSHR miss ticks (Tick)
board.cache_hierarchy.cc_l3cache.overallMshrMissLatency::processor.cores0.core.data      9951039                       # number of overall MSHR miss ticks (Tick)
board.cache_hierarchy.cc_l3cache.overallMshrMissLatency::total     42893370                       # number of overall MSHR miss ticks (Tick)
board.cache_hierarchy.cc_l3cache.demandMshrMissRate::cache_hierarchy.l1dcaches0.prefetcher     0.700000                       # mshr miss ratio for demand accesses (Ratio)
board.cache_hierarchy.cc_l3cache.demandMshrMissRate::cache_hierarchy.l2cache.prefetcher     0.928571                       # mshr miss ratio for demand accesses (Ratio)
board.cache_hierarchy.cc_l3cache.demandMshrMissRate::processor.cores0.core.inst            1                       # mshr miss ratio for demand accesses (Ratio)
board.cache_hierarchy.cc_l3cache.demandMshrMissRate::processor.cores0.core.data     0.993865                       # mshr miss ratio for demand accesses (Ratio)
board.cache_hierarchy.cc_l3cache.demandMshrMissRate::total     0.000414                       # mshr miss ratio for demand accesses (Ratio)
board.cache_hierarchy.cc_l3cache.overallMshrMissRate::cache_hierarchy.cc_l3cache.prefetcher          inf                       # mshr miss ratio for overall accesses (Ratio)
board.cache_hierarchy.cc_l3cache.overallMshrMissRate::cache_hierarchy.l1dcaches0.prefetcher     0.700000                       # mshr miss ratio for overall accesses (Ratio)
board.cache_hierarchy.cc_l3cache.overallMshrMissRate::cache_hierarchy.l2cache.prefetcher     0.928571                       # mshr miss ratio for overall accesses (Ratio)
board.cache_hierarchy.cc_l3cache.overallMshrMissRate::processor.cores0.core.inst            1                       # mshr miss ratio for overall accesses (Ratio)
board.cache_hierarchy.cc_l3cache.overallMshrMissRate::processor.cores0.core.data     0.993865                       # mshr miss ratio for overall accesses (Ratio)
board.cache_hierarchy.cc_l3cache.overallMshrMissRate::total     0.000433                       # mshr miss ratio for overall accesses (Ratio)
board.cache_hierarchy.cc_l3cache.demandAvgMshrMissLatency::cache_hierarchy.l1dcaches0.prefetcher 99638.357143                       # average overall mshr miss latency ((Tick/Count))
board.cache_hierarchy.cc_l3cache.demandAvgMshrMissLatency::cache_hierarchy.l2cache.prefetcher 83595.807692                       # average overall mshr miss latency ((Tick/Count))
board.cache_hierarchy.cc_l3cache.demandAvgMshrMissLatency::processor.cores0.core.inst 53993.250000                       # average overall mshr miss latency ((Tick/Count))
board.cache_hierarchy.cc_l3cache.demandAvgMshrMissLatency::processor.cores0.core.data 61426.166667                       # average overall mshr miss latency ((Tick/Count))
board.cache_hierarchy.cc_l3cache.demandAvgMshrMissLatency::total 59855.536443                       # average overall mshr miss latency ((Tick/Count))
board.cache_hierarchy.cc_l3cache.overallAvgMshrMissLatency::cache_hierarchy.cc_l3cache.prefetcher 57264.750000                       # average overall mshr miss latency ((Tick/Count))
board.cache_hierarchy.cc_l3cache.overallAvgMshrMissLatency::cache_hierarchy.l1dcaches0.prefetcher 99638.357143                       # average overall mshr miss latency ((Tick/Count))
board.cache_hierarchy.cc_l3cache.overallAvgMshrMissLatency::cache_hierarchy.l2cache.prefetcher 83595.807692                       # average overall mshr miss latency ((Tick/Count))
board.cache_hierarchy.cc_l3cache.overallAvgMshrMissLatency::processor.cores0.core.inst 53993.250000                       # average overall mshr miss latency ((Tick/Count))
board.cache_hierarchy.cc_l3cache.overallAvgMshrMissLatency::processor.cores0.core.data 61426.166667                       # average overall mshr miss latency ((Tick/Count))
board.cache_hierarchy.cc_l3cache.overallAvgMshrMissLatency::total 59740.069638                       # average overall mshr miss latency ((Tick/Count))
board.cache_hierarchy.cc_l3cache.replacements            0                       # number of replacements (Count)
board.cache_hierarchy.cc_l3cache.HardPFReq.mshrMisses::cache_hierarchy.cc_l3cache.prefetcher           32                       # number of HardPFReq MSHR misses (Count)
board.cache_hierarchy.cc_l3cache.HardPFReq.mshrMisses::total           32                       # number of HardPFReq MSHR misses (Count)
board.cache_hierarchy.cc_l3cache.HardPFReq.mshrMissLatency::cache_hierarchy.cc_l3cache.prefetcher      1832472                       # number of HardPFReq MSHR miss ticks (Tick)
board.cache_hierarchy.cc_l3cache.HardPFReq.mshrMissLatency::total      1832472                       # number of HardPFReq MSHR miss ticks (Tick)
board.cache_hierarchy.cc_l3cache.HardPFReq.mshrMissRate::cache_hierarchy.cc_l3cache.prefetcher          inf                       # mshr miss rate for HardPFReq accesses (Ratio)
board.cache_hierarchy.cc_l3cache.HardPFReq.mshrMissRate::total          inf                       # mshr miss rate for HardPFReq accesses (Ratio)
board.cache_hierarchy.cc_l3cache.HardPFReq.avgMshrMissLatency::cache_hierarchy.cc_l3cache.prefetcher 57264.750000                       # average HardPFReq mshr miss latency ((Tick/Count))
board.cache_hierarchy.cc_l3cache.HardPFReq.avgMshrMissLatency::total 57264.750000                       # average HardPFReq mshr miss latency ((Tick/Count))
board.cache_hierarchy.cc_l3cache.ReadExReq.misses::processor.cores0.core.data           71                       # number of ReadExReq misses (Count)
board.cache_hierarchy.cc_l3cache.ReadExReq.misses::total           71                       # number of ReadExReq misses (Count)
board.cache_hierarchy.cc_l3cache.ReadExReq.missLatency::processor.cores0.core.data      4286709                       # number of ReadExReq miss ticks (Tick)
board.cache_hierarchy.cc_l3cache.ReadExReq.missLatency::total      4286709                       # number of ReadExReq miss ticks (Tick)
board.cache_hierarchy.cc_l3cache.ReadExReq.accesses::processor.cores0.core.data           71                       # number of ReadExReq accesses(hits+misses) (Count)
board.cache_hierarchy.cc_l3cache.ReadExReq.accesses::total           71                       # number of ReadExReq accesses(hits+misses) (Count)
board.cache_hierarchy.cc_l3cache.ReadExReq.missRate::processor.cores0.core.data            1                       # miss rate for ReadExReq accesses (Ratio)
board.cache_hierarchy.cc_l3cache.ReadExReq.missRate::total            1                       # miss rate for ReadExReq accesses (Ratio)
board.cache_hierarchy.cc_l3cache.ReadExReq.avgMissLatency::processor.cores0.core.data 60376.183099                       # average ReadExReq miss latency ((Tick/Count))
board.cache_hierarchy.cc_l3cache.ReadExReq.avgMissLatency::total 60376.183099                       # average ReadExReq miss latency ((Tick/Count))
board.cache_hierarchy.cc_l3cache.ReadExReq.mshrMisses::processor.cores0.core.data           71                       # number of ReadExReq MSHR misses (Count)
board.cache_hierarchy.cc_l3cache.ReadExReq.mshrMisses::total           71                       # number of ReadExReq MSHR misses (Count)
board.cache_hierarchy.cc_l3cache.ReadExReq.mshrMissLatency::processor.cores0.core.data      4263066                       # number of ReadExReq MSHR miss ticks (Tick)
board.cache_hierarchy.cc_l3cache.ReadExReq.mshrMissLatency::total      4263066                       # number of ReadExReq MSHR miss ticks (Tick)
board.cache_hierarchy.cc_l3cache.ReadExReq.mshrMissRate::processor.cores0.core.data            1                       # mshr miss rate for ReadExReq accesses (Ratio)
board.cache_hierarchy.cc_l3cache.ReadExReq.mshrMissRate::total            1                       # mshr miss rate for ReadExReq accesses (Ratio)
board.cache_hierarchy.cc_l3cache.ReadExReq.avgMshrMissLatency::processor.cores0.core.data 60043.183099                       # average ReadExReq mshr miss latency ((Tick/Count))
board.cache_hierarchy.cc_l3cache.ReadExReq.avgMshrMissLatency::total 60043.183099                       # average ReadExReq mshr miss latency ((Tick/Count))
board.cache_hierarchy.cc_l3cache.ReadReq.hits::processor.cores0.core.cc_buffer      1333275                       # number of ReadReq hits (Count)
board.cache_hierarchy.cc_l3cache.ReadReq.hits::total      1333275                       # number of ReadReq hits (Count)
board.cache_hierarchy.cc_l3cache.ReadReq.misses::processor.cores0.core.cc_buffer           61                       # number of ReadReq misses (Count)
board.cache_hierarchy.cc_l3cache.ReadReq.misses::total           61                       # number of ReadReq misses (Count)
board.cache_hierarchy.cc_l3cache.ReadReq.accesses::processor.cores0.core.cc_buffer      1333336                       # number of ReadReq accesses(hits+misses) (Count)
board.cache_hierarchy.cc_l3cache.ReadReq.accesses::total      1333336                       # number of ReadReq accesses(hits+misses) (Count)
board.cache_hierarchy.cc_l3cache.ReadReq.missRate::processor.cores0.core.cc_buffer     0.000046                       # miss rate for ReadReq accesses (Ratio)
board.cache_hierarchy.cc_l3cache.ReadReq.missRate::total     0.000046                       # miss rate for ReadReq accesses (Ratio)
board.cache_hierarchy.cc_l3cache.ReadSharedReq.hits::cache_hierarchy.l1dcaches0.prefetcher           12                       # number of ReadSharedReq hits (Count)
board.cache_hierarchy.cc_l3cache.ReadSharedReq.hits::cache_hierarchy.l2cache.prefetcher            1                       # number of ReadSharedReq hits (Count)
board.cache_hierarchy.cc_l3cache.ReadSharedReq.hits::processor.cores0.core.data            1                       # number of ReadSharedReq hits (Count)
board.cache_hierarchy.cc_l3cache.ReadSharedReq.hits::total           14                       # number of ReadSharedReq hits (Count)
board.cache_hierarchy.cc_l3cache.ReadSharedReq.misses::cache_hierarchy.l1dcaches0.prefetcher           28                       # number of ReadSharedReq misses (Count)
board.cache_hierarchy.cc_l3cache.ReadSharedReq.misses::cache_hierarchy.l2cache.prefetcher           55                       # number of ReadSharedReq misses (Count)
board.cache_hierarchy.cc_l3cache.ReadSharedReq.misses::processor.cores0.core.inst          444                       # number of ReadSharedReq misses (Count)
board.cache_hierarchy.cc_l3cache.ReadSharedReq.misses::processor.cores0.core.data           91                       # number of ReadSharedReq misses (Count)
board.cache_hierarchy.cc_l3cache.ReadSharedReq.misses::total          618                       # number of ReadSharedReq misses (Count)
board.cache_hierarchy.cc_l3cache.ReadSharedReq.missLatency::cache_hierarchy.l1dcaches0.prefetcher      2799198                       # number of ReadSharedReq miss ticks (Tick)
board.cache_hierarchy.cc_l3cache.ReadSharedReq.missLatency::cache_hierarchy.l2cache.prefetcher      4449213                       # number of ReadSharedReq miss ticks (Tick)
board.cache_hierarchy.cc_l3cache.ReadSharedReq.missLatency::processor.cores0.core.inst     24120189                       # number of ReadSharedReq miss ticks (Tick)
board.cache_hierarchy.cc_l3cache.ReadSharedReq.missLatency::processor.cores0.core.data      5718276                       # number of ReadSharedReq miss ticks (Tick)
board.cache_hierarchy.cc_l3cache.ReadSharedReq.missLatency::total     37086876                       # number of ReadSharedReq miss ticks (Tick)
board.cache_hierarchy.cc_l3cache.ReadSharedReq.accesses::cache_hierarchy.l1dcaches0.prefetcher           40                       # number of ReadSharedReq accesses(hits+misses) (Count)
board.cache_hierarchy.cc_l3cache.ReadSharedReq.accesses::cache_hierarchy.l2cache.prefetcher           56                       # number of ReadSharedReq accesses(hits+misses) (Count)
board.cache_hierarchy.cc_l3cache.ReadSharedReq.accesses::processor.cores0.core.inst          444                       # number of ReadSharedReq accesses(hits+misses) (Count)
board.cache_hierarchy.cc_l3cache.ReadSharedReq.accesses::processor.cores0.core.data           92                       # number of ReadSharedReq accesses(hits+misses) (Count)
board.cache_hierarchy.cc_l3cache.ReadSharedReq.accesses::total          632                       # number of ReadSharedReq accesses(hits+misses) (Count)
board.cache_hierarchy.cc_l3cache.ReadSharedReq.missRate::cache_hierarchy.l1dcaches0.prefetcher     0.700000                       # miss rate for ReadSharedReq accesses (Ratio)
board.cache_hierarchy.cc_l3cache.ReadSharedReq.missRate::cache_hierarchy.l2cache.prefetcher     0.982143                       # miss rate for ReadSharedReq accesses (Ratio)
board.cache_hierarchy.cc_l3cache.ReadSharedReq.missRate::processor.cores0.core.inst            1                       # miss rate for ReadSharedReq accesses (Ratio)
board.cache_hierarchy.cc_l3cache.ReadSharedReq.missRate::processor.cores0.core.data     0.989130                       # miss rate for ReadSharedReq accesses (Ratio)
board.cache_hierarchy.cc_l3cache.ReadSharedReq.missRate::total     0.977848                       # miss rate for ReadSharedReq accesses (Ratio)
board.cache_hierarchy.cc_l3cache.ReadSharedReq.avgMissLatency::cache_hierarchy.l1dcaches0.prefetcher 99971.357143                       # average ReadSharedReq miss latency ((Tick/Count))
board.cache_hierarchy.cc_l3cache.ReadSharedReq.avgMissLatency::cache_hierarchy.l2cache.prefetcher 80894.781818                       # average ReadSharedReq miss latency ((Tick/Count))
board.cache_hierarchy.cc_l3cache.ReadSharedReq.avgMissLatency::processor.cores0.core.inst 54324.750000                       # average ReadSharedReq miss latency ((Tick/Count))
board.cache_hierarchy.cc_l3cache.ReadSharedReq.avgMissLatency::processor.cores0.core.data 62838.197802                       # average ReadSharedReq miss latency ((Tick/Count))
board.cache_hierarchy.cc_l3cache.ReadSharedReq.avgMissLatency::total 60011.126214                       # average ReadSharedReq miss latency ((Tick/Count))
board.cache_hierarchy.cc_l3cache.ReadSharedReq.mshrHits::cache_hierarchy.l2cache.prefetcher            3                       # number of ReadSharedReq MSHR hits (Count)
board.cache_hierarchy.cc_l3cache.ReadSharedReq.mshrHits::total            3                       # number of ReadSharedReq MSHR hits (Count)
board.cache_hierarchy.cc_l3cache.ReadSharedReq.mshrMisses::cache_hierarchy.l1dcaches0.prefetcher           28                       # number of ReadSharedReq MSHR misses (Count)
board.cache_hierarchy.cc_l3cache.ReadSharedReq.mshrMisses::cache_hierarchy.l2cache.prefetcher           52                       # number of ReadSharedReq MSHR misses (Count)
board.cache_hierarchy.cc_l3cache.ReadSharedReq.mshrMisses::processor.cores0.core.inst          444                       # number of ReadSharedReq MSHR misses (Count)
board.cache_hierarchy.cc_l3cache.ReadSharedReq.mshrMisses::processor.cores0.core.data           91                       # number of ReadSharedReq MSHR misses (Count)
board.cache_hierarchy.cc_l3cache.ReadSharedReq.mshrMisses::total          615                       # number of ReadSharedReq MSHR misses (Count)
board.cache_hierarchy.cc_l3cache.ReadSharedReq.mshrMissLatency::cache_hierarchy.l1dcaches0.prefetcher      2789874                       # number of ReadSharedReq MSHR miss ticks (Tick)
board.cache_hierarchy.cc_l3cache.ReadSharedReq.mshrMissLatency::cache_hierarchy.l2cache.prefetcher      4346982                       # number of ReadSharedReq MSHR miss ticks (Tick)
board.cache_hierarchy.cc_l3cache.ReadSharedReq.mshrMissLatency::processor.cores0.core.inst     23973003                       # number of ReadSharedReq MSHR miss ticks (Tick)
board.cache_hierarchy.cc_l3cache.ReadSharedReq.mshrMissLatency::processor.cores0.core.data      5687973                       # number of ReadSharedReq MSHR miss ticks (Tick)
board.cache_hierarchy.cc_l3cache.ReadSharedReq.mshrMissLatency::total     36797832                       # number of ReadSharedReq MSHR miss ticks (Tick)
board.cache_hierarchy.cc_l3cache.ReadSharedReq.mshrMissRate::cache_hierarchy.l1dcaches0.prefetcher     0.700000                       # mshr miss rate for ReadSharedReq accesses (Ratio)
board.cache_hierarchy.cc_l3cache.ReadSharedReq.mshrMissRate::cache_hierarchy.l2cache.prefetcher     0.928571                       # mshr miss rate for ReadSharedReq accesses (Ratio)
board.cache_hierarchy.cc_l3cache.ReadSharedReq.mshrMissRate::processor.cores0.core.inst            1                       # mshr miss rate for ReadSharedReq accesses (Ratio)
board.cache_hierarchy.cc_l3cache.ReadSharedReq.mshrMissRate::processor.cores0.core.data     0.989130                       # mshr miss rate for ReadSharedReq accesses (Ratio)
board.cache_hierarchy.cc_l3cache.ReadSharedReq.mshrMissRate::total     0.973101                       # mshr miss rate for ReadSharedReq accesses (Ratio)
board.cache_hierarchy.cc_l3cache.ReadSharedReq.avgMshrMissLatency::cache_hierarchy.l1dcaches0.prefetcher 99638.357143                       # average ReadSharedReq mshr miss latency ((Tick/Count))
board.cache_hierarchy.cc_l3cache.ReadSharedReq.avgMshrMissLatency::cache_hierarchy.l2cache.prefetcher 83595.807692                       # average ReadSharedReq mshr miss latency ((Tick/Count))
board.cache_hierarchy.cc_l3cache.ReadSharedReq.avgMshrMissLatency::processor.cores0.core.inst 53993.250000                       # average ReadSharedReq mshr miss latency ((Tick/Count))
board.cache_hierarchy.cc_l3cache.ReadSharedReq.avgMshrMissLatency::processor.cores0.core.data 62505.197802                       # average ReadSharedReq mshr miss latency ((Tick/Count))
board.cache_hierarchy.cc_l3cache.ReadSharedReq.avgMshrMissLatency::total 59833.873171                       # average ReadSharedReq mshr miss latency ((Tick/Count))
board.cache_hierarchy.cc_l3cache.WriteReq.hits::processor.cores0.core.cc_buffer       322305                       # number of WriteReq hits (Count)
board.cache_hierarchy.cc_l3cache.WriteReq.hits::total       322305                       # number of WriteReq hits (Count)
board.cache_hierarchy.cc_l3cache.WriteReq.misses::processor.cores0.core.cc_buffer          333                       # number of WriteReq misses (Count)
board.cache_hierarchy.cc_l3cache.WriteReq.misses::total          333                       # number of WriteReq misses (Count)
board.cache_hierarchy.cc_l3cache.WriteReq.accesses::processor.cores0.core.cc_buffer       322638                       # number of WriteReq accesses(hits+misses) (Count)
board.cache_hierarchy.cc_l3cache.WriteReq.accesses::total       322638                       # number of WriteReq accesses(hits+misses) (Count)
board.cache_hierarchy.cc_l3cache.WriteReq.missRate::processor.cores0.core.cc_buffer     0.001032                       # miss rate for WriteReq accesses (Ratio)
board.cache_hierarchy.cc_l3cache.WriteReq.missRate::total     0.001032                       # miss rate for WriteReq accesses (Ratio)
board.cache_hierarchy.cc_l3cache.power_state.pwrStateResidencyTicks::UNDEFINED    559193247                       # Cumulative time (in ticks) in various power states (Tick)
board.cache_hierarchy.cc_l3cache.prefetcher.demandMshrMisses          686                       # demands not covered by prefetchs (Count)
board.cache_hierarchy.cc_l3cache.prefetcher.pfIssued           59                       # number of hwpf issued (Count)
board.cache_hierarchy.cc_l3cache.prefetcher.pfUseful           14                       # number of useful prefetch (Count)
board.cache_hierarchy.cc_l3cache.prefetcher.pfUsefulButMiss            0                       # number of hit on prefetch but cache block is not in an usable state (Count)
board.cache_hierarchy.cc_l3cache.prefetcher.accuracy     0.237288                       # accuracy of the prefetcher (Count)
board.cache_hierarchy.cc_l3cache.prefetcher.coverage     0.020000                       # coverage brought by this prefetcher (Count)
board.cache_hierarchy.cc_l3cache.prefetcher.pfHitInCache            9                       # number of prefetches hitting in cache (Count)
board.cache_hierarchy.cc_l3cache.prefetcher.pfHitInMSHR           18                       # number of prefetches hitting in a MSHR (Count)
board.cache_hierarchy.cc_l3cache.prefetcher.pfHitInWB            0                       # number of prefetches hit in the Write Buffer (Count)
board.cache_hierarchy.cc_l3cache.prefetcher.pfLate           27                       # number of late prefetches (hitting in cache, MSHR or WB) (Count)
board.cache_hierarchy.cc_l3cache.prefetcher.pfIdentified           86                       # number of prefetch candidates identified (Count)
board.cache_hierarchy.cc_l3cache.prefetcher.pfBufferHit           14                       # number of redundant prefetches already in prefetch queue (Count)
board.cache_hierarchy.cc_l3cache.prefetcher.pfInCache            0                       # number of redundant prefetches already in cache/mshr dropped (Count)
board.cache_hierarchy.cc_l3cache.prefetcher.pfRemovedDemand            7                       # number of prefetches dropped due to a demand for the same address (Count)
board.cache_hierarchy.cc_l3cache.prefetcher.pfRemovedFull            0                       # number of prefetches dropped due to prefetch queue size (Count)
board.cache_hierarchy.cc_l3cache.prefetcher.pfSpanPage           26                       # number of prefetches that crossed the page (Count)
board.cache_hierarchy.cc_l3cache.prefetcher.pfUsefulSpanPage            0                       # number of prefetches that is useful and crossed the page (Count)
board.cache_hierarchy.cc_l3cache.prefetcher.power_state.pwrStateResidencyTicks::UNDEFINED    559193247                       # Cumulative time (in ticks) in various power states (Tick)
board.cache_hierarchy.cc_l3cache.tags.tagsInUse   529.425107                       # Average ticks per tags in use ((Tick/Count))
board.cache_hierarchy.cc_l3cache.tags.totalRefs      1656310                       # Total number of references to valid blocks. (Count)
board.cache_hierarchy.cc_l3cache.tags.sampledRefs          716                       # Sample count of references to valid blocks. (Count)
board.cache_hierarchy.cc_l3cache.tags.avgRefs  2313.282123                       # Average number of references to valid blocks. ((Count/Count))
board.cache_hierarchy.cc_l3cache.tags.warmupTick        69597                       # The tick when the warmup percentage was hit. (Tick)
board.cache_hierarchy.cc_l3cache.tags.occupancies::cache_hierarchy.cc_l3cache.prefetcher    30.414043                       # Average occupied blocks per tick, per requestor ((Count/Tick))
board.cache_hierarchy.cc_l3cache.tags.occupancies::cache_hierarchy.l1dcaches0.prefetcher    27.587832                       # Average occupied blocks per tick, per requestor ((Count/Tick))
board.cache_hierarchy.cc_l3cache.tags.occupancies::cache_hierarchy.l2cache.prefetcher    51.938394                       # Average occupied blocks per tick, per requestor ((Count/Tick))
board.cache_hierarchy.cc_l3cache.tags.occupancies::processor.cores0.core.inst   296.743397                       # Average occupied blocks per tick, per requestor ((Count/Tick))
board.cache_hierarchy.cc_l3cache.tags.occupancies::processor.cores0.core.data   122.741441                       # Average occupied blocks per tick, per requestor ((Count/Tick))
board.cache_hierarchy.cc_l3cache.tags.avgOccs::cache_hierarchy.cc_l3cache.prefetcher     0.000928                       # Average percentage of cache occupancy ((Ratio/Tick))
board.cache_hierarchy.cc_l3cache.tags.avgOccs::cache_hierarchy.l1dcaches0.prefetcher     0.000842                       # Average percentage of cache occupancy ((Ratio/Tick))
board.cache_hierarchy.cc_l3cache.tags.avgOccs::cache_hierarchy.l2cache.prefetcher     0.001585                       # Average percentage of cache occupancy ((Ratio/Tick))
board.cache_hierarchy.cc_l3cache.tags.avgOccs::processor.cores0.core.inst     0.009056                       # Average percentage of cache occupancy ((Ratio/Tick))
board.cache_hierarchy.cc_l3cache.tags.avgOccs::processor.cores0.core.data     0.003746                       # Average percentage of cache occupancy ((Ratio/Tick))
board.cache_hierarchy.cc_l3cache.tags.avgOccs::total     0.016157                       # Average percentage of cache occupancy ((Ratio/Tick))
board.cache_hierarchy.cc_l3cache.tags.occupanciesTaskId::1022          112                       # Occupied blocks per task id (Count)
board.cache_hierarchy.cc_l3cache.tags.occupanciesTaskId::1024          604                       # Occupied blocks per task id (Count)
board.cache_hierarchy.cc_l3cache.tags.ageTaskId_1022::2          112                       # Occupied blocks per task id, per block age (Count)
board.cache_hierarchy.cc_l3cache.tags.ageTaskId_1024::0          180                       # Occupied blocks per task id, per block age (Count)
board.cache_hierarchy.cc_l3cache.tags.ageTaskId_1024::2          424                       # Occupied blocks per task id, per block age (Count)
board.cache_hierarchy.cc_l3cache.tags.ratioOccsTaskId::1022     0.003418                       # Ratio of occupied blocks and all blocks, per task id (Ratio)
board.cache_hierarchy.cc_l3cache.tags.ratioOccsTaskId::1024     0.018433                       # Ratio of occupied blocks and all blocks, per task id (Ratio)
board.cache_hierarchy.cc_l3cache.tags.tagAccesses     26507548                       # Number of tag accesses (Count)
board.cache_hierarchy.cc_l3cache.tags.dataAccesses     26507548                       # Number of data accesses (Count)
board.cache_hierarchy.cc_l3cache.tags.power_state.pwrStateResidencyTicks::UNDEFINED    559193247                       # Cumulative time (in ticks) in various power states (Tick)
board.cache_hierarchy.dptw_caches0.blockedCycles::no_mshrs            0                       # number of cycles access was blocked (Cycle)
board.cache_hierarchy.dptw_caches0.blockedCycles::no_targets            0                       # number of cycles access was blocked (Cycle)
board.cache_hierarchy.dptw_caches0.blockedCauses::no_mshrs            0                       # number of times access was blocked (Count)
board.cache_hierarchy.dptw_caches0.blockedCauses::no_targets            0                       # number of times access was blocked (Count)
board.cache_hierarchy.dptw_caches0.avgBlocked::no_mshrs          nan                       # average number of cycles each access was blocked ((Cycle/Count))
board.cache_hierarchy.dptw_caches0.avgBlocked::no_targets          nan                       # average number of cycles each access was blocked ((Cycle/Count))
board.cache_hierarchy.dptw_caches0.replacements            0                       # number of replacements (Count)
board.cache_hierarchy.dptw_caches0.power_state.pwrStateResidencyTicks::UNDEFINED    559193247                       # Cumulative time (in ticks) in various power states (Tick)
board.cache_hierarchy.dptw_caches0.tags.tagsInUse            0                       # Average ticks per tags in use ((Tick/Count))
board.cache_hierarchy.dptw_caches0.tags.totalRefs            0                       # Total number of references to valid blocks. (Count)
board.cache_hierarchy.dptw_caches0.tags.sampledRefs            0                       # Sample count of references to valid blocks. (Count)
board.cache_hierarchy.dptw_caches0.tags.avgRefs          nan                       # Average number of references to valid blocks. ((Count/Count))
board.cache_hierarchy.dptw_caches0.tags.warmupTick            0                       # The tick when the warmup percentage was hit. (Tick)
board.cache_hierarchy.dptw_caches0.tags.tagAccesses            0                       # Number of tag accesses (Count)
board.cache_hierarchy.dptw_caches0.tags.dataAccesses            0                       # Number of data accesses (Count)
board.cache_hierarchy.dptw_caches0.tags.power_state.pwrStateResidencyTicks::UNDEFINED    559193247                       # Cumulative time (in ticks) in various power states (Tick)
board.cache_hierarchy.dptw_caches1.blockedCycles::no_mshrs            0                       # number of cycles access was blocked (Cycle)
board.cache_hierarchy.dptw_caches1.blockedCycles::no_targets            0                       # number of cycles access was blocked (Cycle)
board.cache_hierarchy.dptw_caches1.blockedCauses::no_mshrs            0                       # number of times access was blocked (Count)
board.cache_hierarchy.dptw_caches1.blockedCauses::no_targets            0                       # number of times access was blocked (Count)
board.cache_hierarchy.dptw_caches1.avgBlocked::no_mshrs          nan                       # average number of cycles each access was blocked ((Cycle/Count))
board.cache_hierarchy.dptw_caches1.avgBlocked::no_targets          nan                       # average number of cycles each access was blocked ((Cycle/Count))
board.cache_hierarchy.dptw_caches1.replacements            0                       # number of replacements (Count)
board.cache_hierarchy.dptw_caches1.power_state.pwrStateResidencyTicks::UNDEFINED    559193247                       # Cumulative time (in ticks) in various power states (Tick)
board.cache_hierarchy.dptw_caches1.tags.tagsInUse            0                       # Average ticks per tags in use ((Tick/Count))
board.cache_hierarchy.dptw_caches1.tags.totalRefs            0                       # Total number of references to valid blocks. (Count)
board.cache_hierarchy.dptw_caches1.tags.sampledRefs            0                       # Sample count of references to valid blocks. (Count)
board.cache_hierarchy.dptw_caches1.tags.avgRefs          nan                       # Average number of references to valid blocks. ((Count/Count))
board.cache_hierarchy.dptw_caches1.tags.warmupTick            0                       # The tick when the warmup percentage was hit. (Tick)
board.cache_hierarchy.dptw_caches1.tags.tagAccesses            0                       # Number of tag accesses (Count)
board.cache_hierarchy.dptw_caches1.tags.dataAccesses            0                       # Number of data accesses (Count)
board.cache_hierarchy.dptw_caches1.tags.power_state.pwrStateResidencyTicks::UNDEFINED    559193247                       # Cumulative time (in ticks) in various power states (Tick)
board.cache_hierarchy.dptw_caches2.blockedCycles::no_mshrs            0                       # number of cycles access was blocked (Cycle)
board.cache_hierarchy.dptw_caches2.blockedCycles::no_targets            0                       # number of cycles access was blocked (Cycle)
board.cache_hierarchy.dptw_caches2.blockedCauses::no_mshrs            0                       # number of times access was blocked (Count)
board.cache_hierarchy.dptw_caches2.blockedCauses::no_targets            0                       # number of times access was blocked (Count)
board.cache_hierarchy.dptw_caches2.avgBlocked::no_mshrs          nan                       # average number of cycles each access was blocked ((Cycle/Count))
board.cache_hierarchy.dptw_caches2.avgBlocked::no_targets          nan                       # average number of cycles each access was blocked ((Cycle/Count))
board.cache_hierarchy.dptw_caches2.replacements            0                       # number of replacements (Count)
board.cache_hierarchy.dptw_caches2.power_state.pwrStateResidencyTicks::UNDEFINED    559193247                       # Cumulative time (in ticks) in various power states (Tick)
board.cache_hierarchy.dptw_caches2.tags.tagsInUse            0                       # Average ticks per tags in use ((Tick/Count))
board.cache_hierarchy.dptw_caches2.tags.totalRefs            0                       # Total number of references to valid blocks. (Count)
board.cache_hierarchy.dptw_caches2.tags.sampledRefs            0                       # Sample count of references to valid blocks. (Count)
board.cache_hierarchy.dptw_caches2.tags.avgRefs          nan                       # Average number of references to valid blocks. ((Count/Count))
board.cache_hierarchy.dptw_caches2.tags.warmupTick            0                       # The tick when the warmup percentage was hit. (Tick)
board.cache_hierarchy.dptw_caches2.tags.tagAccesses            0                       # Number of tag accesses (Count)
board.cache_hierarchy.dptw_caches2.tags.dataAccesses            0                       # Number of data accesses (Count)
board.cache_hierarchy.dptw_caches2.tags.power_state.pwrStateResidencyTicks::UNDEFINED    559193247                       # Cumulative time (in ticks) in various power states (Tick)
board.cache_hierarchy.dptw_caches3.blockedCycles::no_mshrs            0                       # number of cycles access was blocked (Cycle)
board.cache_hierarchy.dptw_caches3.blockedCycles::no_targets            0                       # number of cycles access was blocked (Cycle)
board.cache_hierarchy.dptw_caches3.blockedCauses::no_mshrs            0                       # number of times access was blocked (Count)
board.cache_hierarchy.dptw_caches3.blockedCauses::no_targets            0                       # number of times access was blocked (Count)
board.cache_hierarchy.dptw_caches3.avgBlocked::no_mshrs          nan                       # average number of cycles each access was blocked ((Cycle/Count))
board.cache_hierarchy.dptw_caches3.avgBlocked::no_targets          nan                       # average number of cycles each access was blocked ((Cycle/Count))
board.cache_hierarchy.dptw_caches3.replacements            0                       # number of replacements (Count)
board.cache_hierarchy.dptw_caches3.power_state.pwrStateResidencyTicks::UNDEFINED    559193247                       # Cumulative time (in ticks) in various power states (Tick)
board.cache_hierarchy.dptw_caches3.tags.tagsInUse            0                       # Average ticks per tags in use ((Tick/Count))
board.cache_hierarchy.dptw_caches3.tags.totalRefs            0                       # Total number of references to valid blocks. (Count)
board.cache_hierarchy.dptw_caches3.tags.sampledRefs            0                       # Sample count of references to valid blocks. (Count)
board.cache_hierarchy.dptw_caches3.tags.avgRefs          nan                       # Average number of references to valid blocks. ((Count/Count))
board.cache_hierarchy.dptw_caches3.tags.warmupTick            0                       # The tick when the warmup percentage was hit. (Tick)
board.cache_hierarchy.dptw_caches3.tags.tagAccesses            0                       # Number of tag accesses (Count)
board.cache_hierarchy.dptw_caches3.tags.dataAccesses            0                       # Number of data accesses (Count)
board.cache_hierarchy.dptw_caches3.tags.power_state.pwrStateResidencyTicks::UNDEFINED    559193247                       # Cumulative time (in ticks) in various power states (Tick)
board.cache_hierarchy.dptw_caches4.blockedCycles::no_mshrs            0                       # number of cycles access was blocked (Cycle)
board.cache_hierarchy.dptw_caches4.blockedCycles::no_targets            0                       # number of cycles access was blocked (Cycle)
board.cache_hierarchy.dptw_caches4.blockedCauses::no_mshrs            0                       # number of times access was blocked (Count)
board.cache_hierarchy.dptw_caches4.blockedCauses::no_targets            0                       # number of times access was blocked (Count)
board.cache_hierarchy.dptw_caches4.avgBlocked::no_mshrs          nan                       # average number of cycles each access was blocked ((Cycle/Count))
board.cache_hierarchy.dptw_caches4.avgBlocked::no_targets          nan                       # average number of cycles each access was blocked ((Cycle/Count))
board.cache_hierarchy.dptw_caches4.replacements            0                       # number of replacements (Count)
board.cache_hierarchy.dptw_caches4.power_state.pwrStateResidencyTicks::UNDEFINED    559193247                       # Cumulative time (in ticks) in various power states (Tick)
board.cache_hierarchy.dptw_caches4.tags.tagsInUse            0                       # Average ticks per tags in use ((Tick/Count))
board.cache_hierarchy.dptw_caches4.tags.totalRefs            0                       # Total number of references to valid blocks. (Count)
board.cache_hierarchy.dptw_caches4.tags.sampledRefs            0                       # Sample count of references to valid blocks. (Count)
board.cache_hierarchy.dptw_caches4.tags.avgRefs          nan                       # Average number of references to valid blocks. ((Count/Count))
board.cache_hierarchy.dptw_caches4.tags.warmupTick            0                       # The tick when the warmup percentage was hit. (Tick)
board.cache_hierarchy.dptw_caches4.tags.tagAccesses            0                       # Number of tag accesses (Count)
board.cache_hierarchy.dptw_caches4.tags.dataAccesses            0                       # Number of data accesses (Count)
board.cache_hierarchy.dptw_caches4.tags.power_state.pwrStateResidencyTicks::UNDEFINED    559193247                       # Cumulative time (in ticks) in various power states (Tick)
board.cache_hierarchy.dptw_caches5.blockedCycles::no_mshrs            0                       # number of cycles access was blocked (Cycle)
board.cache_hierarchy.dptw_caches5.blockedCycles::no_targets            0                       # number of cycles access was blocked (Cycle)
board.cache_hierarchy.dptw_caches5.blockedCauses::no_mshrs            0                       # number of times access was blocked (Count)
board.cache_hierarchy.dptw_caches5.blockedCauses::no_targets            0                       # number of times access was blocked (Count)
board.cache_hierarchy.dptw_caches5.avgBlocked::no_mshrs          nan                       # average number of cycles each access was blocked ((Cycle/Count))
board.cache_hierarchy.dptw_caches5.avgBlocked::no_targets          nan                       # average number of cycles each access was blocked ((Cycle/Count))
board.cache_hierarchy.dptw_caches5.replacements            0                       # number of replacements (Count)
board.cache_hierarchy.dptw_caches5.power_state.pwrStateResidencyTicks::UNDEFINED    559193247                       # Cumulative time (in ticks) in various power states (Tick)
board.cache_hierarchy.dptw_caches5.tags.tagsInUse            0                       # Average ticks per tags in use ((Tick/Count))
board.cache_hierarchy.dptw_caches5.tags.totalRefs            0                       # Total number of references to valid blocks. (Count)
board.cache_hierarchy.dptw_caches5.tags.sampledRefs            0                       # Sample count of references to valid blocks. (Count)
board.cache_hierarchy.dptw_caches5.tags.avgRefs          nan                       # Average number of references to valid blocks. ((Count/Count))
board.cache_hierarchy.dptw_caches5.tags.warmupTick            0                       # The tick when the warmup percentage was hit. (Tick)
board.cache_hierarchy.dptw_caches5.tags.tagAccesses            0                       # Number of tag accesses (Count)
board.cache_hierarchy.dptw_caches5.tags.dataAccesses            0                       # Number of data accesses (Count)
board.cache_hierarchy.dptw_caches5.tags.power_state.pwrStateResidencyTicks::UNDEFINED    559193247                       # Cumulative time (in ticks) in various power states (Tick)
board.cache_hierarchy.dptw_caches6.blockedCycles::no_mshrs            0                       # number of cycles access was blocked (Cycle)
board.cache_hierarchy.dptw_caches6.blockedCycles::no_targets            0                       # number of cycles access was blocked (Cycle)
board.cache_hierarchy.dptw_caches6.blockedCauses::no_mshrs            0                       # number of times access was blocked (Count)
board.cache_hierarchy.dptw_caches6.blockedCauses::no_targets            0                       # number of times access was blocked (Count)
board.cache_hierarchy.dptw_caches6.avgBlocked::no_mshrs          nan                       # average number of cycles each access was blocked ((Cycle/Count))
board.cache_hierarchy.dptw_caches6.avgBlocked::no_targets          nan                       # average number of cycles each access was blocked ((Cycle/Count))
board.cache_hierarchy.dptw_caches6.replacements            0                       # number of replacements (Count)
board.cache_hierarchy.dptw_caches6.power_state.pwrStateResidencyTicks::UNDEFINED    559193247                       # Cumulative time (in ticks) in various power states (Tick)
board.cache_hierarchy.dptw_caches6.tags.tagsInUse            0                       # Average ticks per tags in use ((Tick/Count))
board.cache_hierarchy.dptw_caches6.tags.totalRefs            0                       # Total number of references to valid blocks. (Count)
board.cache_hierarchy.dptw_caches6.tags.sampledRefs            0                       # Sample count of references to valid blocks. (Count)
board.cache_hierarchy.dptw_caches6.tags.avgRefs          nan                       # Average number of references to valid blocks. ((Count/Count))
board.cache_hierarchy.dptw_caches6.tags.warmupTick            0                       # The tick when the warmup percentage was hit. (Tick)
board.cache_hierarchy.dptw_caches6.tags.tagAccesses            0                       # Number of tag accesses (Count)
board.cache_hierarchy.dptw_caches6.tags.dataAccesses            0                       # Number of data accesses (Count)
board.cache_hierarchy.dptw_caches6.tags.power_state.pwrStateResidencyTicks::UNDEFINED    559193247                       # Cumulative time (in ticks) in various power states (Tick)
board.cache_hierarchy.dptw_caches7.blockedCycles::no_mshrs            0                       # number of cycles access was blocked (Cycle)
board.cache_hierarchy.dptw_caches7.blockedCycles::no_targets            0                       # number of cycles access was blocked (Cycle)
board.cache_hierarchy.dptw_caches7.blockedCauses::no_mshrs            0                       # number of times access was blocked (Count)
board.cache_hierarchy.dptw_caches7.blockedCauses::no_targets            0                       # number of times access was blocked (Count)
board.cache_hierarchy.dptw_caches7.avgBlocked::no_mshrs          nan                       # average number of cycles each access was blocked ((Cycle/Count))
board.cache_hierarchy.dptw_caches7.avgBlocked::no_targets          nan                       # average number of cycles each access was blocked ((Cycle/Count))
board.cache_hierarchy.dptw_caches7.replacements            0                       # number of replacements (Count)
board.cache_hierarchy.dptw_caches7.power_state.pwrStateResidencyTicks::UNDEFINED    559193247                       # Cumulative time (in ticks) in various power states (Tick)
board.cache_hierarchy.dptw_caches7.tags.tagsInUse            0                       # Average ticks per tags in use ((Tick/Count))
board.cache_hierarchy.dptw_caches7.tags.totalRefs            0                       # Total number of references to valid blocks. (Count)
board.cache_hierarchy.dptw_caches7.tags.sampledRefs            0                       # Sample count of references to valid blocks. (Count)
board.cache_hierarchy.dptw_caches7.tags.avgRefs          nan                       # Average number of references to valid blocks. ((Count/Count))
board.cache_hierarchy.dptw_caches7.tags.warmupTick            0                       # The tick when the warmup percentage was hit. (Tick)
board.cache_hierarchy.dptw_caches7.tags.tagAccesses            0                       # Number of tag accesses (Count)
board.cache_hierarchy.dptw_caches7.tags.dataAccesses            0                       # Number of data accesses (Count)
board.cache_hierarchy.dptw_caches7.tags.power_state.pwrStateResidencyTicks::UNDEFINED    559193247                       # Cumulative time (in ticks) in various power states (Tick)
board.cache_hierarchy.iptw_caches0.blockedCycles::no_mshrs            0                       # number of cycles access was blocked (Cycle)
board.cache_hierarchy.iptw_caches0.blockedCycles::no_targets            0                       # number of cycles access was blocked (Cycle)
board.cache_hierarchy.iptw_caches0.blockedCauses::no_mshrs            0                       # number of times access was blocked (Count)
board.cache_hierarchy.iptw_caches0.blockedCauses::no_targets            0                       # number of times access was blocked (Count)
board.cache_hierarchy.iptw_caches0.avgBlocked::no_mshrs          nan                       # average number of cycles each access was blocked ((Cycle/Count))
board.cache_hierarchy.iptw_caches0.avgBlocked::no_targets          nan                       # average number of cycles each access was blocked ((Cycle/Count))
board.cache_hierarchy.iptw_caches0.replacements            0                       # number of replacements (Count)
board.cache_hierarchy.iptw_caches0.power_state.pwrStateResidencyTicks::UNDEFINED    559193247                       # Cumulative time (in ticks) in various power states (Tick)
board.cache_hierarchy.iptw_caches0.tags.tagsInUse            0                       # Average ticks per tags in use ((Tick/Count))
board.cache_hierarchy.iptw_caches0.tags.totalRefs            0                       # Total number of references to valid blocks. (Count)
board.cache_hierarchy.iptw_caches0.tags.sampledRefs            0                       # Sample count of references to valid blocks. (Count)
board.cache_hierarchy.iptw_caches0.tags.avgRefs          nan                       # Average number of references to valid blocks. ((Count/Count))
board.cache_hierarchy.iptw_caches0.tags.warmupTick            0                       # The tick when the warmup percentage was hit. (Tick)
board.cache_hierarchy.iptw_caches0.tags.tagAccesses            0                       # Number of tag accesses (Count)
board.cache_hierarchy.iptw_caches0.tags.dataAccesses            0                       # Number of data accesses (Count)
board.cache_hierarchy.iptw_caches0.tags.power_state.pwrStateResidencyTicks::UNDEFINED    559193247                       # Cumulative time (in ticks) in various power states (Tick)
board.cache_hierarchy.iptw_caches1.blockedCycles::no_mshrs            0                       # number of cycles access was blocked (Cycle)
board.cache_hierarchy.iptw_caches1.blockedCycles::no_targets            0                       # number of cycles access was blocked (Cycle)
board.cache_hierarchy.iptw_caches1.blockedCauses::no_mshrs            0                       # number of times access was blocked (Count)
board.cache_hierarchy.iptw_caches1.blockedCauses::no_targets            0                       # number of times access was blocked (Count)
board.cache_hierarchy.iptw_caches1.avgBlocked::no_mshrs          nan                       # average number of cycles each access was blocked ((Cycle/Count))
board.cache_hierarchy.iptw_caches1.avgBlocked::no_targets          nan                       # average number of cycles each access was blocked ((Cycle/Count))
board.cache_hierarchy.iptw_caches1.replacements            0                       # number of replacements (Count)
board.cache_hierarchy.iptw_caches1.power_state.pwrStateResidencyTicks::UNDEFINED    559193247                       # Cumulative time (in ticks) in various power states (Tick)
board.cache_hierarchy.iptw_caches1.tags.tagsInUse            0                       # Average ticks per tags in use ((Tick/Count))
board.cache_hierarchy.iptw_caches1.tags.totalRefs            0                       # Total number of references to valid blocks. (Count)
board.cache_hierarchy.iptw_caches1.tags.sampledRefs            0                       # Sample count of references to valid blocks. (Count)
board.cache_hierarchy.iptw_caches1.tags.avgRefs          nan                       # Average number of references to valid blocks. ((Count/Count))
board.cache_hierarchy.iptw_caches1.tags.warmupTick            0                       # The tick when the warmup percentage was hit. (Tick)
board.cache_hierarchy.iptw_caches1.tags.tagAccesses            0                       # Number of tag accesses (Count)
board.cache_hierarchy.iptw_caches1.tags.dataAccesses            0                       # Number of data accesses (Count)
board.cache_hierarchy.iptw_caches1.tags.power_state.pwrStateResidencyTicks::UNDEFINED    559193247                       # Cumulative time (in ticks) in various power states (Tick)
board.cache_hierarchy.iptw_caches2.blockedCycles::no_mshrs            0                       # number of cycles access was blocked (Cycle)
board.cache_hierarchy.iptw_caches2.blockedCycles::no_targets            0                       # number of cycles access was blocked (Cycle)
board.cache_hierarchy.iptw_caches2.blockedCauses::no_mshrs            0                       # number of times access was blocked (Count)
board.cache_hierarchy.iptw_caches2.blockedCauses::no_targets            0                       # number of times access was blocked (Count)
board.cache_hierarchy.iptw_caches2.avgBlocked::no_mshrs          nan                       # average number of cycles each access was blocked ((Cycle/Count))
board.cache_hierarchy.iptw_caches2.avgBlocked::no_targets          nan                       # average number of cycles each access was blocked ((Cycle/Count))
board.cache_hierarchy.iptw_caches2.replacements            0                       # number of replacements (Count)
board.cache_hierarchy.iptw_caches2.power_state.pwrStateResidencyTicks::UNDEFINED    559193247                       # Cumulative time (in ticks) in various power states (Tick)
board.cache_hierarchy.iptw_caches2.tags.tagsInUse            0                       # Average ticks per tags in use ((Tick/Count))
board.cache_hierarchy.iptw_caches2.tags.totalRefs            0                       # Total number of references to valid blocks. (Count)
board.cache_hierarchy.iptw_caches2.tags.sampledRefs            0                       # Sample count of references to valid blocks. (Count)
board.cache_hierarchy.iptw_caches2.tags.avgRefs          nan                       # Average number of references to valid blocks. ((Count/Count))
board.cache_hierarchy.iptw_caches2.tags.warmupTick            0                       # The tick when the warmup percentage was hit. (Tick)
board.cache_hierarchy.iptw_caches2.tags.tagAccesses            0                       # Number of tag accesses (Count)
board.cache_hierarchy.iptw_caches2.tags.dataAccesses            0                       # Number of data accesses (Count)
board.cache_hierarchy.iptw_caches2.tags.power_state.pwrStateResidencyTicks::UNDEFINED    559193247                       # Cumulative time (in ticks) in various power states (Tick)
board.cache_hierarchy.iptw_caches3.blockedCycles::no_mshrs            0                       # number of cycles access was blocked (Cycle)
board.cache_hierarchy.iptw_caches3.blockedCycles::no_targets            0                       # number of cycles access was blocked (Cycle)
board.cache_hierarchy.iptw_caches3.blockedCauses::no_mshrs            0                       # number of times access was blocked (Count)
board.cache_hierarchy.iptw_caches3.blockedCauses::no_targets            0                       # number of times access was blocked (Count)
board.cache_hierarchy.iptw_caches3.avgBlocked::no_mshrs          nan                       # average number of cycles each access was blocked ((Cycle/Count))
board.cache_hierarchy.iptw_caches3.avgBlocked::no_targets          nan                       # average number of cycles each access was blocked ((Cycle/Count))
board.cache_hierarchy.iptw_caches3.replacements            0                       # number of replacements (Count)
board.cache_hierarchy.iptw_caches3.power_state.pwrStateResidencyTicks::UNDEFINED    559193247                       # Cumulative time (in ticks) in various power states (Tick)
board.cache_hierarchy.iptw_caches3.tags.tagsInUse            0                       # Average ticks per tags in use ((Tick/Count))
board.cache_hierarchy.iptw_caches3.tags.totalRefs            0                       # Total number of references to valid blocks. (Count)
board.cache_hierarchy.iptw_caches3.tags.sampledRefs            0                       # Sample count of references to valid blocks. (Count)
board.cache_hierarchy.iptw_caches3.tags.avgRefs          nan                       # Average number of references to valid blocks. ((Count/Count))
board.cache_hierarchy.iptw_caches3.tags.warmupTick            0                       # The tick when the warmup percentage was hit. (Tick)
board.cache_hierarchy.iptw_caches3.tags.tagAccesses            0                       # Number of tag accesses (Count)
board.cache_hierarchy.iptw_caches3.tags.dataAccesses            0                       # Number of data accesses (Count)
board.cache_hierarchy.iptw_caches3.tags.power_state.pwrStateResidencyTicks::UNDEFINED    559193247                       # Cumulative time (in ticks) in various power states (Tick)
board.cache_hierarchy.iptw_caches4.blockedCycles::no_mshrs            0                       # number of cycles access was blocked (Cycle)
board.cache_hierarchy.iptw_caches4.blockedCycles::no_targets            0                       # number of cycles access was blocked (Cycle)
board.cache_hierarchy.iptw_caches4.blockedCauses::no_mshrs            0                       # number of times access was blocked (Count)
board.cache_hierarchy.iptw_caches4.blockedCauses::no_targets            0                       # number of times access was blocked (Count)
board.cache_hierarchy.iptw_caches4.avgBlocked::no_mshrs          nan                       # average number of cycles each access was blocked ((Cycle/Count))
board.cache_hierarchy.iptw_caches4.avgBlocked::no_targets          nan                       # average number of cycles each access was blocked ((Cycle/Count))
board.cache_hierarchy.iptw_caches4.replacements            0                       # number of replacements (Count)
board.cache_hierarchy.iptw_caches4.power_state.pwrStateResidencyTicks::UNDEFINED    559193247                       # Cumulative time (in ticks) in various power states (Tick)
board.cache_hierarchy.iptw_caches4.tags.tagsInUse            0                       # Average ticks per tags in use ((Tick/Count))
board.cache_hierarchy.iptw_caches4.tags.totalRefs            0                       # Total number of references to valid blocks. (Count)
board.cache_hierarchy.iptw_caches4.tags.sampledRefs            0                       # Sample count of references to valid blocks. (Count)
board.cache_hierarchy.iptw_caches4.tags.avgRefs          nan                       # Average number of references to valid blocks. ((Count/Count))
board.cache_hierarchy.iptw_caches4.tags.warmupTick            0                       # The tick when the warmup percentage was hit. (Tick)
board.cache_hierarchy.iptw_caches4.tags.tagAccesses            0                       # Number of tag accesses (Count)
board.cache_hierarchy.iptw_caches4.tags.dataAccesses            0                       # Number of data accesses (Count)
board.cache_hierarchy.iptw_caches4.tags.power_state.pwrStateResidencyTicks::UNDEFINED    559193247                       # Cumulative time (in ticks) in various power states (Tick)
board.cache_hierarchy.iptw_caches5.blockedCycles::no_mshrs            0                       # number of cycles access was blocked (Cycle)
board.cache_hierarchy.iptw_caches5.blockedCycles::no_targets            0                       # number of cycles access was blocked (Cycle)
board.cache_hierarchy.iptw_caches5.blockedCauses::no_mshrs            0                       # number of times access was blocked (Count)
board.cache_hierarchy.iptw_caches5.blockedCauses::no_targets            0                       # number of times access was blocked (Count)
board.cache_hierarchy.iptw_caches5.avgBlocked::no_mshrs          nan                       # average number of cycles each access was blocked ((Cycle/Count))
board.cache_hierarchy.iptw_caches5.avgBlocked::no_targets          nan                       # average number of cycles each access was blocked ((Cycle/Count))
board.cache_hierarchy.iptw_caches5.replacements            0                       # number of replacements (Count)
board.cache_hierarchy.iptw_caches5.power_state.pwrStateResidencyTicks::UNDEFINED    559193247                       # Cumulative time (in ticks) in various power states (Tick)
board.cache_hierarchy.iptw_caches5.tags.tagsInUse            0                       # Average ticks per tags in use ((Tick/Count))
board.cache_hierarchy.iptw_caches5.tags.totalRefs            0                       # Total number of references to valid blocks. (Count)
board.cache_hierarchy.iptw_caches5.tags.sampledRefs            0                       # Sample count of references to valid blocks. (Count)
board.cache_hierarchy.iptw_caches5.tags.avgRefs          nan                       # Average number of references to valid blocks. ((Count/Count))
board.cache_hierarchy.iptw_caches5.tags.warmupTick            0                       # The tick when the warmup percentage was hit. (Tick)
board.cache_hierarchy.iptw_caches5.tags.tagAccesses            0                       # Number of tag accesses (Count)
board.cache_hierarchy.iptw_caches5.tags.dataAccesses            0                       # Number of data accesses (Count)
board.cache_hierarchy.iptw_caches5.tags.power_state.pwrStateResidencyTicks::UNDEFINED    559193247                       # Cumulative time (in ticks) in various power states (Tick)
board.cache_hierarchy.iptw_caches6.blockedCycles::no_mshrs            0                       # number of cycles access was blocked (Cycle)
board.cache_hierarchy.iptw_caches6.blockedCycles::no_targets            0                       # number of cycles access was blocked (Cycle)
board.cache_hierarchy.iptw_caches6.blockedCauses::no_mshrs            0                       # number of times access was blocked (Count)
board.cache_hierarchy.iptw_caches6.blockedCauses::no_targets            0                       # number of times access was blocked (Count)
board.cache_hierarchy.iptw_caches6.avgBlocked::no_mshrs          nan                       # average number of cycles each access was blocked ((Cycle/Count))
board.cache_hierarchy.iptw_caches6.avgBlocked::no_targets          nan                       # average number of cycles each access was blocked ((Cycle/Count))
board.cache_hierarchy.iptw_caches6.replacements            0                       # number of replacements (Count)
board.cache_hierarchy.iptw_caches6.power_state.pwrStateResidencyTicks::UNDEFINED    559193247                       # Cumulative time (in ticks) in various power states (Tick)
board.cache_hierarchy.iptw_caches6.tags.tagsInUse            0                       # Average ticks per tags in use ((Tick/Count))
board.cache_hierarchy.iptw_caches6.tags.totalRefs            0                       # Total number of references to valid blocks. (Count)
board.cache_hierarchy.iptw_caches6.tags.sampledRefs            0                       # Sample count of references to valid blocks. (Count)
board.cache_hierarchy.iptw_caches6.tags.avgRefs          nan                       # Average number of references to valid blocks. ((Count/Count))
board.cache_hierarchy.iptw_caches6.tags.warmupTick            0                       # The tick when the warmup percentage was hit. (Tick)
board.cache_hierarchy.iptw_caches6.tags.tagAccesses            0                       # Number of tag accesses (Count)
board.cache_hierarchy.iptw_caches6.tags.dataAccesses            0                       # Number of data accesses (Count)
board.cache_hierarchy.iptw_caches6.tags.power_state.pwrStateResidencyTicks::UNDEFINED    559193247                       # Cumulative time (in ticks) in various power states (Tick)
board.cache_hierarchy.iptw_caches7.blockedCycles::no_mshrs            0                       # number of cycles access was blocked (Cycle)
board.cache_hierarchy.iptw_caches7.blockedCycles::no_targets            0                       # number of cycles access was blocked (Cycle)
board.cache_hierarchy.iptw_caches7.blockedCauses::no_mshrs            0                       # number of times access was blocked (Count)
board.cache_hierarchy.iptw_caches7.blockedCauses::no_targets            0                       # number of times access was blocked (Count)
board.cache_hierarchy.iptw_caches7.avgBlocked::no_mshrs          nan                       # average number of cycles each access was blocked ((Cycle/Count))
board.cache_hierarchy.iptw_caches7.avgBlocked::no_targets          nan                       # average number of cycles each access was blocked ((Cycle/Count))
board.cache_hierarchy.iptw_caches7.replacements            0                       # number of replacements (Count)
board.cache_hierarchy.iptw_caches7.power_state.pwrStateResidencyTicks::UNDEFINED    559193247                       # Cumulative time (in ticks) in various power states (Tick)
board.cache_hierarchy.iptw_caches7.tags.tagsInUse            0                       # Average ticks per tags in use ((Tick/Count))
board.cache_hierarchy.iptw_caches7.tags.totalRefs            0                       # Total number of references to valid blocks. (Count)
board.cache_hierarchy.iptw_caches7.tags.sampledRefs            0                       # Sample count of references to valid blocks. (Count)
board.cache_hierarchy.iptw_caches7.tags.avgRefs          nan                       # Average number of references to valid blocks. ((Count/Count))
board.cache_hierarchy.iptw_caches7.tags.warmupTick            0                       # The tick when the warmup percentage was hit. (Tick)
board.cache_hierarchy.iptw_caches7.tags.tagAccesses            0                       # Number of tag accesses (Count)
board.cache_hierarchy.iptw_caches7.tags.dataAccesses            0                       # Number of data accesses (Count)
board.cache_hierarchy.iptw_caches7.tags.power_state.pwrStateResidencyTicks::UNDEFINED    559193247                       # Cumulative time (in ticks) in various power states (Tick)
board.cache_hierarchy.l1dcaches0.demandHits::processor.cores0.core.data       783346                       # number of demand (read+write) hits (Count)
board.cache_hierarchy.l1dcaches0.demandHits::total       783346                       # number of demand (read+write) hits (Count)
board.cache_hierarchy.l1dcaches0.overallHits::processor.cores0.core.data       783346                       # number of overall hits (Count)
board.cache_hierarchy.l1dcaches0.overallHits::total       783346                       # number of overall hits (Count)
board.cache_hierarchy.l1dcaches0.demandMisses::processor.cores0.core.data          320                       # number of demand (read+write) misses (Count)
[...]
board.processor.cores7.core.cc_buffer.execute_buffer_occupancy_histogram::405            0      0.00%    100.00% # Distribution of decode buffer occupancy (Unspecified)
board.processor.cores7.core.cc_buffer.execute_buffer_occupancy_histogram::406            0      0.00%    100.00% # Distribution of decode buffer occupancy (Unspecified)
board.processor.cores7.core.cc_buffer.execute_buffer_occupancy_histogram::407            0      0.00%    100.00% # Distribution of decode buffer occupancy (Unspecified)
board.processor.cores7.core.cc_buffer.execute_buffer_occupancy_histogram::408            0      0.00%    100.00% # Distribution of decode buffer occupancy (Unspecified)
board.processor.cores7.core.cc_buffer.execute_buffer_occupancy_histogram::409            0      0.00%    100.00% # Distribution of decode buffer occupancy (Unspecified)
board.processor.cores7.core.cc_buffer.execute_buffer_occupancy_histogram::410            0      0.00%    100.00% # Distribution of decode buffer occupancy (Unspecified)
board.processor.cores7.core.cc_buffer.execute_buffer_occupancy_histogram::411            0      0.00%    100.00% # Distribution of decode buffer occupancy (Unspecified)
board.processor.cores7.core.cc_buffer.execute_buffer_occupancy_histogram::412            0      0.00%    100.00% # Distribution of decode buffer occupancy (Unspecified)
board.processor.cores7.core.cc_buffer.execute_buffer_occupancy_histogram::413            0      0.00%    100.00% # Distribution of decode buffer occupancy (Unspecified)
board.processor.cores7.core.cc_buffer.execute_buffer_occupancy_histogram::414            0      0.00%    100.00% # Distribution of decode buffer occupancy (Unspecified)
board.processor.cores7.core.cc_buffer.execute_buffer_occupancy_histogram::415            0      0.00%    100.00% # Distribution of decode buffer occupancy (Unspecified)
board.processor.cores7.core.cc_buffer.execute_buffer_occupancy_histogram::416            0      0.00%    100.00% # Distribution of decode buffer occupancy (Unspecified)
board.processor.cores7.core.cc_buffer.execute_buffer_occupancy_histogram::417            0      0.00%    100.00% # Distribution of decode buffer occupancy (Unspecified)
board.processor.cores7.core.cc_buffer.execute_buffer_occupancy_histogram::418            0      0.00%    100.00% # Distribution of decode buffer occupancy (Unspecified)
board.processor.cores7.core.cc_buffer.execute_buffer_occupancy_histogram::419            0      0.00%    100.00% # Distribution of decode buffer occupancy (Unspecified)
board.processor.cores7.core.cc_buffer.execute_buffer_occupancy_histogram::420            0      0.00%    100.00% # Distribution of decode buffer occupancy (Unspecified)
board.processor.cores7.core.cc_buffer.execute_buffer_occupancy_histogram::421            0      0.00%    100.00% # Distribution of decode buffer occupancy (Unspecified)
board.processor.cores7.core.cc_buffer.execute_buffer_occupancy_histogram::422            0      0.00%    100.00% # Distribution of decode buffer occupancy (Unspecified)
board.processor.cores7.core.cc_buffer.execute_buffer_occupancy_histogram::423            0      0.00%    100.00% # Distribution of decode buffer occupancy (Unspecified)
board.processor.cores7.core.cc_buffer.execute_buffer_occupancy_histogram::424            0      0.00%    100.00% # Distribution of decode buffer occupancy (Unspecified)
board.processor.cores7.core.cc_buffer.execute_buffer_occupancy_histogram::425            0      0.00%    100.00% # Distribution of decode buffer occupancy (Unspecified)
board.processor.cores7.core.cc_buffer.execute_buffer_occupancy_histogram::426            0      0.00%    100.00% # Distribution of decode buffer occupancy (Unspecified)
board.processor.cores7.core.cc_buffer.execute_buffer_occupancy_histogram::427            0      0.00%    100.00% # Distribution of decode buffer occupancy (Unspecified)
board.processor.cores7.core.cc_buffer.execute_buffer_occupancy_histogram::428            0      0.00%    100.00% # Distribution of decode buffer occupancy (Unspecified)
board.processor.cores7.core.cc_buffer.execute_buffer_occupancy_histogram::429            0      0.00%    100.00% # Distribution of decode buffer occupancy (Unspecified)
board.processor.cores7.core.cc_buffer.execute_buffer_occupancy_histogram::430            0      0.00%    100.00% # Distribution of decode buffer occupancy (Unspecified)
board.processor.cores7.core.cc_buffer.execute_buffer_occupancy_histogram::431            0      0.00%    100.00% # Distribution of decode buffer occupancy (Unspecified)
board.processor.cores7.core.cc_buffer.execute_buffer_occupancy_histogram::432            0      0.00%    100.00% # Distribution of decode buffer occupancy (Unspecified)
board.processor.cores7.core.cc_buffer.execute_buffer_occupancy_histogram::433            0      0.00%    100.00% # Distribution of decode buffer occupancy (Unspecified)
board.processor.cores7.core.cc_buffer.execute_buffer_occupancy_histogram::434            0      0.00%    100.00% # Distribution of decode buffer occupancy (Unspecified)
board.processor.cores7.core.cc_buffer.execute_buffer_occupancy_histogram::435            0      0.00%    100.00% # Distribution of decode buffer occupancy (Unspecified)
board.processor.cores7.core.cc_buffer.execute_buffer_occupancy_histogram::436            0      0.00%    100.00% # Distribution of decode buffer occupancy (Unspecified)
board.processor.cores7.core.cc_buffer.execute_buffer_occupancy_histogram::437            0      0.00%    100.00% # Distribution of decode buffer occupancy (Unspecified)
board.processor.cores7.core.cc_buffer.execute_buffer_occupancy_histogram::438            0      0.00%    100.00% # Distribution of decode buffer occupancy (Unspecified)
board.processor.cores7.core.cc_buffer.execute_buffer_occupancy_histogram::439            0      0.00%    100.00% # Distribution of decode buffer occupancy (Unspecified)
board.processor.cores7.core.cc_buffer.execute_buffer_occupancy_histogram::440            0      0.00%    100.00% # Distribution of decode buffer occupancy (Unspecified)
board.processor.cores7.core.cc_buffer.execute_buffer_occupancy_histogram::441            0      0.00%    100.00% # Distribution of decode buffer occupancy (Unspecified)
board.processor.cores7.core.cc_buffer.execute_buffer_occupancy_histogram::442            0      0.00%    100.00% # Distribution of decode buffer occupancy (Unspecified)
board.processor.cores7.core.cc_buffer.execute_buffer_occupancy_histogram::443            0      0.00%    100.00% # Distribution of decode buffer occupancy (Unspecified)
board.processor.cores7.core.cc_buffer.execute_buffer_occupancy_histogram::444            0      0.00%    100.00% # Distribution of decode buffer occupancy (Unspecified)
board.processor.cores7.core.cc_buffer.execute_buffer_occupancy_histogram::445            0      0.00%    100.00% # Distribution of decode buffer occupancy (Unspecified)
board.processor.cores7.core.cc_buffer.execute_buffer_occupancy_histogram::446            0      0.00%    100.00% # Distribution of decode buffer occupancy (Unspecified)
board.processor.cores7.core.cc_buffer.execute_buffer_occupancy_histogram::447            0      0.00%    100.00% # Distribution of decode buffer occupancy (Unspecified)
board.processor.cores7.core.cc_buffer.execute_buffer_occupancy_histogram::448            0      0.00%    100.00% # Distribution of decode buffer occupancy (Unspecified)
board.processor.cores7.core.cc_buffer.execute_buffer_occupancy_histogram::449            0      0.00%    100.00% # Distribution of decode buffer occupancy (Unspecified)
board.processor.cores7.core.cc_buffer.execute_buffer_occupancy_histogram::450            0      0.00%    100.00% # Distribution of decode buffer occupancy (Unspecified)
board.processor.cores7.core.cc_buffer.execute_buffer_occupancy_histogram::451            0      0.00%    100.00% # Distribution of decode buffer occupancy (Unspecified)
board.processor.cores7.core.cc_buffer.execute_buffer_occupancy_histogram::452            0      0.00%    100.00% # Distribution of decode buffer occupancy (Unspecified)
board.processor.cores7.core.cc_buffer.execute_buffer_occupancy_histogram::453            0      0.00%    100.00% # Distribution of decode buffer occupancy (Unspecified)
board.processor.cores7.core.cc_buffer.execute_buffer_occupancy_histogram::454            0      0.00%    100.00% # Distribution of decode buffer occupancy (Unspecified)
board.processor.cores7.core.cc_buffer.execute_buffer_occupancy_histogram::455            0      0.00%    100.00% # Distribution of decode buffer occupancy (Unspecified)
board.processor.cores7.core.cc_buffer.execute_buffer_occupancy_histogram::456            0      0.00%    100.00% # Distribution of decode buffer occupancy (Unspecified)
board.processor.cores7.core.cc_buffer.execute_buffer_occupancy_histogram::457            0      0.00%    100.00% # Distribution of decode buffer occupancy (Unspecified)
board.processor.cores7.core.cc_buffer.execute_buffer_occupancy_histogram::458            0      0.00%    100.00% # Distribution of decode buffer occupancy (Unspecified)
board.processor.cores7.core.cc_buffer.execute_buffer_occupancy_histogram::459            0      0.00%    100.00% # Distribution of decode buffer occupancy (Unspecified)
board.processor.cores7.core.cc_buffer.execute_buffer_occupancy_histogram::460            0      0.00%    100.00% # Distribution of decode buffer occupancy (Unspecified)
board.processor.cores7.core.cc_buffer.execute_buffer_occupancy_histogram::461            0      0.00%    100.00% # Distribution of decode buffer occupancy (Unspecified)
board.processor.cores7.core.cc_buffer.execute_buffer_occupancy_histogram::462            0      0.00%    100.00% # Distribution of decode buffer occupancy (Unspecified)
board.processor.cores7.core.cc_buffer.execute_buffer_occupancy_histogram::463            0      0.00%    100.00% # Distribution of decode buffer occupancy (Unspecified)
board.processor.cores7.core.cc_buffer.execute_buffer_occupancy_histogram::464            0      0.00%    100.00% # Distribution of decode buffer occupancy (Unspecified)
board.processor.cores7.core.cc_buffer.execute_buffer_occupancy_histogram::465            0      0.00%    100.00% # Distribution of decode buffer occupancy (Unspecified)
board.processor.cores7.core.cc_buffer.execute_buffer_occupancy_histogram::466            0      0.00%    100.00% # Distribution of decode buffer occupancy (Unspecified)
board.processor.cores7.core.cc_buffer.execute_buffer_occupancy_histogram::467            0      0.00%    100.00% # Distribution of decode buffer occupancy (Unspecified)
board.processor.cores7.core.cc_buffer.execute_buffer_occupancy_histogram::468            0      0.00%    100.00% # Distribution of decode buffer occupancy (Unspecified)
board.processor.cores7.core.cc_buffer.execute_buffer_occupancy_histogram::469            0      0.00%    100.00% # Distribution of decode buffer occupancy (Unspecified)
board.processor.cores7.core.cc_buffer.execute_buffer_occupancy_histogram::470            0      0.00%    100.00% # Distribution of decode buffer occupancy (Unspecified)
board.processor.cores7.core.cc_buffer.execute_buffer_occupancy_histogram::471            0      0.00%    100.00% # Distribution of decode buffer occupancy (Unspecified)
board.processor.cores7.core.cc_buffer.execute_buffer_occupancy_histogram::472            0      0.00%    100.00% # Distribution of decode buffer occupancy (Unspecified)
board.processor.cores7.core.cc_buffer.execute_buffer_occupancy_histogram::473            0      0.00%    100.00% # Distribution of decode buffer occupancy (Unspecified)
board.processor.cores7.core.cc_buffer.execute_buffer_occupancy_histogram::474            0      0.00%    100.00% # Distribution of decode buffer occupancy (Unspecified)
board.processor.cores7.core.cc_buffer.execute_buffer_occupancy_histogram::475            0      0.00%    100.00% # Distribution of decode buffer occupancy (Unspecified)
board.processor.cores7.core.cc_buffer.execute_buffer_occupancy_histogram::476            0      0.00%    100.00% # Distribution of decode buffer occupancy (Unspecified)
board.processor.cores7.core.cc_buffer.execute_buffer_occupancy_histogram::477            0      0.00%    100.00% # Distribution of decode buffer occupancy (Unspecified)
board.processor.cores7.core.cc_buffer.execute_buffer_occupancy_histogram::478            0      0.00%    100.00% # Distribution of decode buffer occupancy (Unspecified)
board.processor.cores7.core.cc_buffer.execute_buffer_occupancy_histogram::479            0      0.00%    100.00% # Distribution of decode buffer occupancy (Unspecified)
board.processor.cores7.core.cc_buffer.execute_buffer_occupancy_histogram::480            0      0.00%    100.00% # Distribution of decode buffer occupancy (Unspecified)
board.processor.cores7.core.cc_buffer.execute_buffer_occupancy_histogram::481            0      0.00%    100.00% # Distribution of decode buffer occupancy (Unspecified)
board.processor.cores7.core.cc_buffer.execute_buffer_occupancy_histogram::482            0      0.00%    100.00% # Distribution of decode buffer occupancy (Unspecified)
board.processor.cores7.core.cc_buffer.execute_buffer_occupancy_histogram::483            0      0.00%    100.00% # Distribution of decode buffer occupancy (Unspecified)
board.processor.cores7.core.cc_buffer.execute_buffer_occupancy_histogram::484            0      0.00%    100.00% # Distribution of decode buffer occupancy (Unspecified)
board.processor.cores7.core.cc_buffer.execute_buffer_occupancy_histogram::485            0      0.00%    100.00% # Distribution of decode buffer occupancy (Unspecified)
board.processor.cores7.core.cc_buffer.execute_buffer_occupancy_histogram::486            0      0.00%    100.00% # Distribution of decode buffer occupancy (Unspecified)
board.processor.cores7.core.cc_buffer.execute_buffer_occupancy_histogram::487            0      0.00%    100.00% # Distribution of decode buffer occupancy (Unspecified)
board.processor.cores7.core.cc_buffer.execute_buffer_occupancy_histogram::488            0      0.00%    100.00% # Distribution of decode buffer occupancy (Unspecified)
board.processor.cores7.core.cc_buffer.execute_buffer_occupancy_histogram::489            0      0.00%    100.00% # Distribution of decode buffer occupancy (Unspecified)
board.processor.cores7.core.cc_buffer.execute_buffer_occupancy_histogram::490            0      0.00%    100.00% # Distribution of decode buffer occupancy (Unspecified)
board.processor.cores7.core.cc_buffer.execute_buffer_occupancy_histogram::491            0      0.00%    100.00% # Distribution of decode buffer occupancy (Unspecified)
board.processor.cores7.core.cc_buffer.execute_buffer_occupancy_histogram::492            0      0.00%    100.00% # Distribution of decode buffer occupancy (Unspecified)
board.processor.cores7.core.cc_buffer.execute_buffer_occupancy_histogram::493            0      0.00%    100.00% # Distribution of decode buffer occupancy (Unspecified)
board.processor.cores7.core.cc_buffer.execute_buffer_occupancy_histogram::494            0      0.00%    100.00% # Distribution of decode buffer occupancy (Unspecified)
board.processor.cores7.core.cc_buffer.execute_buffer_occupancy_histogram::495            0      0.00%    100.00% # Distribution of decode buffer occupancy (Unspecified)
board.processor.cores7.core.cc_buffer.execute_buffer_occupancy_histogram::496            0      0.00%    100.00% # Distribution of decode buffer occupancy (Unspecified)
board.processor.cores7.core.cc_buffer.execute_buffer_occupancy_histogram::497            0      0.00%    100.00% # Distribution of decode buffer occupancy (Unspecified)
board.processor.cores7.core.cc_buffer.execute_buffer_occupancy_histogram::498            0      0.00%    100.00% # Distribution of decode buffer occupancy (Unspecified)
board.processor.cores7.core.cc_buffer.execute_buffer_occupancy_histogram::499            0      0.00%    100.00% # Distribution of decode buffer occupancy (Unspecified)
board.processor.cores7.core.cc_buffer.execute_buffer_occupancy_histogram::500            0      0.00%    100.00% # Distribution of decode buffer occupancy (Unspecified)
board.processor.cores7.core.cc_buffer.execute_buffer_occupancy_histogram::501            0      0.00%    100.00% # Distribution of decode buffer occupancy (Unspecified)
board.processor.cores7.core.cc_buffer.execute_buffer_occupancy_histogram::502            0      0.00%    100.00% # Distribution of decode buffer occupancy (Unspecified)
board.processor.cores7.core.cc_buffer.execute_buffer_occupancy_histogram::503            0      0.00%    100.00% # Distribution of decode buffer occupancy (Unspecified)
board.processor.cores7.core.cc_buffer.execute_buffer_occupancy_histogram::504            0      0.00%    100.00% # Distribution of decode buffer occupancy (Unspecified)
board.processor.cores7.core.cc_buffer.execute_buffer_occupancy_histogram::505            0      0.00%    100.00% # Distribution of decode buffer occupancy (Unspecified)
board.processor.cores7.core.cc_buffer.execute_buffer_occupancy_histogram::506            0      0.00%    100.00% # Distribution of decode buffer occupancy (Unspecified)
board.processor.cores7.core.cc_buffer.execute_buffer_occupancy_histogram::507            0      0.00%    100.00% # Distribution of decode buffer occupancy (Unspecified)
board.processor.cores7.core.cc_buffer.execute_buffer_occupancy_histogram::508            0      0.00%    100.00% # Distribution of decode buffer occupancy (Unspecified)
board.processor.cores7.core.cc_buffer.execute_buffer_occupancy_histogram::509            0      0.00%    100.00% # Distribution of decode buffer occupancy (Unspecified)
board.processor.cores7.core.cc_buffer.execute_buffer_occupancy_histogram::510            0      0.00%    100.00% # Distribution of decode buffer occupancy (Unspecified)
board.processor.cores7.core.cc_buffer.execute_buffer_occupancy_histogram::511            0      0.00%    100.00% # Distribution of decode buffer occupancy (Unspecified)
board.processor.cores7.core.cc_buffer.execute_buffer_occupancy_histogram::512            0      0.00%    100.00% # Distribution of decode buffer occupancy (Unspecified)
board.processor.cores7.core.cc_buffer.execute_buffer_occupancy_histogram::overflows            0      0.00%    100.00% # Distribution of decode buffer occupancy (Unspecified)
board.processor.cores7.core.cc_buffer.execute_buffer_occupancy_histogram::min_value            0                       # Distribution of decode buffer occupancy (Unspecified)
board.processor.cores7.core.cc_buffer.execute_buffer_occupancy_histogram::max_value            0                       # Distribution of decode buffer occupancy (Unspecified)
board.processor.cores7.core.cc_buffer.execute_buffer_occupancy_histogram::total       419814                       # Distribution of decode buffer occupancy (Unspecified)
board.processor.cores7.core.cc_buffer.execute_old_inst_not_finished            0                       # Number of times execute buffer paused due to oldest insts not being finished executing (Unspecified)
board.processor.cores7.core.cc_buffer.num_fault_insts            0                       # Number of fault insts executed (Unspecified)
board.processor.cores7.core.cc_buffer.num_unknown_insts            0                       # Number of unknown insts executed (Unspecified)
board.processor.cores7.core.cc_buffer.ooo_stall_signals            0                       # Number of cycles stalled due to buffer (Unspecified)
board.processor.cores7.core.cc_buffer.regfile_bandwidth_reached            0                       # Number of times execute buffer paused due to bandwidth reached (Unspecified)
board.processor.cores7.core.cc_buffer.regfile_insts_processed            0                       # Number of insts regfile has processes (Unspecified)

---------- End Simulation Statistics   ----------
