
---------- Begin Simulation Statistics ----------
simSeconds                                   0.000066                       # Number of seconds simulated (Second)
simTicks                                     66332601                       # Number of ticks simulated (Tick)
finalTick                                    66332601                       # Number of ticks from beginning of simulation (restored from checkpoints and never reset) (Tick)
simFreq                                  1000000000000                       # The number of ticks per simulated second ((Tick/Second))
hostSeconds                                      6.66                       # Real time elapsed on the host (Second)
hostTickRate                                  9962041                       # The number of ticks simulated per host second (ticks/s) ((Tick/Second))
hostMemory                                    8913752                       # Number of bytes of host memory used (Byte)
simInsts                                       605477                       # Number of instructions simulated (Count)
simOps                                        1037398                       # Number of ops (including micro ops) simulated (Count)
hostInstRate                                    90930                       # Simulator instruction rate (inst/s) ((Count/Second))
hostOpRate                                     155794                       # Simulator op (including micro ops) rate (op/s) ((Count/Second))
board.cache_hierarchy.cc_l3cache.demandHits::cache_hierarchy.l1dcaches0.prefetcher           11                       # number of demand (read+write) hits (Count)
board.cache_hierarchy.cc_l3cache.demandHits::cache_hierarchy.l2cache.prefetcher            9                       # number of demand (read+write) hits (Count)
board.cache_hierarchy.cc_l3cache.demandHits::processor.cores0.core.data           12                       # number of demand (read+write) hits (Count)
board.cache_hierarchy.cc_l3cache.demandHits::total           32                       # number of demand (read+write) hits (Count)
board.cache_hierarchy.cc_l3cache.overallHits::cache_hierarchy.l1dcaches0.prefetcher           11                       # number of overall hits (Count)
board.cache_hierarchy.cc_l3cache.overallHits::cache_hierarchy.l2cache.prefetcher            9                       # number of overall hits (Count)
board.cache_hierarchy.cc_l3cache.overallHits::processor.cores0.core.data           12                       # number of overall hits (Count)
board.cache_hierarchy.cc_l3cache.overallHits::total           32                       # number of overall hits (Count)
board.cache_hierarchy.cc_l3cache.demandMisses::cache_hierarchy.l1dcaches0.prefetcher           69                       # number of demand (read+write) misses (Count)
board.cache_hierarchy.cc_l3cache.demandMisses::cache_hierarchy.l1dcaches7.prefetcher            1                       # number of demand (read+write) misses (Count)
board.cache_hierarchy.cc_l3cache.demandMisses::cache_hierarchy.l2cache.prefetcher          112                       # number of demand (read+write) misses (Count)
board.cache_hierarchy.cc_l3cache.demandMisses::processor.cores0.core.inst          955                       # number of demand (read+write) misses (Count)
board.cache_hierarchy.cc_l3cache.demandMisses::processor.cores0.core.data          464                       # number of demand (read+write) misses (Count)
board.cache_hierarchy.cc_l3cache.demandMisses::processor.cores1.core.inst           19                       # number of demand (read+write) misses (Count)
board.cache_hierarchy.cc_l3cache.demandMisses::processor.cores1.core.data            6                       # number of demand (read+write) misses (Count)
board.cache_hierarchy.cc_l3cache.demandMisses::processor.cores2.core.inst            5                       # number of demand (read+write) misses (Count)
board.cache_hierarchy.cc_l3cache.demandMisses::processor.cores2.core.data            7                       # number of demand (read+write) misses (Count)
board.cache_hierarchy.cc_l3cache.demandMisses::processor.cores3.core.inst            2                       # number of demand (read+write) misses (Count)
board.cache_hierarchy.cc_l3cache.demandMisses::processor.cores3.core.data            6                       # number of demand (read+write) misses (Count)
board.cache_hierarchy.cc_l3cache.demandMisses::processor.cores4.core.inst            1                       # number of demand (read+write) misses (Count)
board.cache_hierarchy.cc_l3cache.demandMisses::processor.cores4.core.data            6                       # number of demand (read+write) misses (Count)
board.cache_hierarchy.cc_l3cache.demandMisses::processor.cores5.core.inst            1                       # number of demand (read+write) misses (Count)
board.cache_hierarchy.cc_l3cache.demandMisses::processor.cores5.core.data            6                       # number of demand (read+write) misses (Count)
board.cache_hierarchy.cc_l3cache.demandMisses::processor.cores6.core.data            6                       # number of demand (read+write) misses (Count)
board.cache_hierarchy.cc_l3cache.demandMisses::processor.cores7.core.inst            2                       # number of demand (read+write) misses (Count)
board.cache_hierarchy.cc_l3cache.demandMisses::processor.cores7.core.data            6                       # number of demand (read+write) misses (Count)
board.cache_hierarchy.cc_l3cache.demandMisses::total         1674                       # number of demand (read+write) misses (Count)
board.cache_hierarchy.cc_l3cache.overallMisses::cache_hierarchy.l1dcaches0.prefetcher           69                       # number of overall misses (Count)
board.cache_hierarchy.cc_l3cache.overallMisses::cache_hierarchy.l1dcaches7.prefetcher            1                       # number of overall misses (Count)
board.cache_hierarchy.cc_l3cache.overallMisses::cache_hierarchy.l2cache.prefetcher          112                       # number of overall misses (Count)
board.cache_hierarchy.cc_l3cache.overallMisses::processor.cores0.core.inst          955                       # number of overall misses (Count)
board.cache_hierarchy.cc_l3cache.overallMisses::processor.cores0.core.data          464                       # number of overall misses (Count)
board.cache_hierarchy.cc_l3cache.overallMisses::processor.cores1.core.inst           19                       # number of overall misses (Count)
board.cache_hierarchy.cc_l3cache.overallMisses::processor.cores1.core.data            6                       # number of overall misses (Count)
board.cache_hierarchy.cc_l3cache.overallMisses::processor.cores2.core.inst            5                       # number of overall misses (Count)
board.cache_hierarchy.cc_l3cache.overallMisses::processor.cores2.core.data            7                       # number of overall misses (Count)
board.cache_hierarchy.cc_l3cache.overallMisses::processor.cores3.core.inst            2                       # number of overall misses (Count)
board.cache_hierarchy.cc_l3cache.overallMisses::processor.cores3.core.data            6                       # number of overall misses (Count)
board.cache_hierarchy.cc_l3cache.overallMisses::processor.cores4.core.inst            1                       # number of overall misses (Count)
board.cache_hierarchy.cc_l3cache.overallMisses::processor.cores4.core.data            6                       # number of overall misses (Count)
board.cache_hierarchy.cc_l3cache.overallMisses::processor.cores5.core.inst            1                       # number of overall misses (Count)
board.cache_hierarchy.cc_l3cache.overallMisses::processor.cores5.core.data            6                       # number of overall misses (Count)
board.cache_hierarchy.cc_l3cache.overallMisses::processor.cores6.core.data            6                       # number of overall misses (Count)
board.cache_hierarchy.cc_l3cache.overallMisses::processor.cores7.core.inst            2                       # number of overall misses (Count)
board.cache_hierarchy.cc_l3cache.overallMisses::processor.cores7.core.data            6                       # number of overall misses (Count)
board.cache_hierarchy.cc_l3cache.overallMisses::total         1674                       # number of overall misses (Count)
board.cache_hierarchy.cc_l3cache.demandMissLatency::cache_hierarchy.l1dcaches0.prefetcher      6193141                       # number of demand (read+write) miss ticks (Tick)
board.cache_hierarchy.cc_l3cache.demandMissLatency::cache_hierarchy.l1dcaches7.prefetcher        73593                       # number of demand (read+write) miss ticks (Tick)
board.cache_hierarchy.cc_l3cache.demandMissLatency::cache_hierarchy.l2cache.prefetcher      8424200                       # number of demand (read+write) miss ticks (Tick)
board.cache_hierarchy.cc_l3cache.demandMissLatency::processor.cores0.core.inst     54286326                       # number of demand (read+write) miss ticks (Tick)
board.cache_hierarchy.cc_l3cache.demandMissLatency::processor.cores0.core.data     29146491                       # number of demand (read+write) miss ticks (Tick)
board.cache_hierarchy.cc_l3cache.demandMissLatency::processor.cores1.core.inst      1110888                       # number of demand (read+write) miss ticks (Tick)
board.cache_hierarchy.cc_l3cache.demandMissLatency::processor.cores1.core.data       397935                       # number of demand (read+write) miss ticks (Tick)
board.cache_hierarchy.cc_l3cache.demandMissLatency::processor.cores2.core.inst       346986                       # number of demand (read+write) miss ticks (Tick)
board.cache_hierarchy.cc_l3cache.demandMissLatency::processor.cores2.core.data       432900                       # number of demand (read+write) miss ticks (Tick)
board.cache_hierarchy.cc_l3cache.demandMissLatency::processor.cores3.core.inst       119880                       # number of demand (read+write) miss ticks (Tick)
board.cache_hierarchy.cc_l3cache.demandMissLatency::processor.cores3.core.data       316017                       # number of demand (read+write) miss ticks (Tick)
board.cache_hierarchy.cc_l3cache.demandMissLatency::processor.cores4.core.inst        73593                       # number of demand (read+write) miss ticks (Tick)
board.cache_hierarchy.cc_l3cache.demandMissLatency::processor.cores4.core.data       305361                       # number of demand (read+write) miss ticks (Tick)
board.cache_hierarchy.cc_l3cache.demandMissLatency::processor.cores5.core.inst        50283                       # number of demand (read+write) miss ticks (Tick)
board.cache_hierarchy.cc_l3cache.demandMissLatency::processor.cores5.core.data       293373                       # number of demand (read+write) miss ticks (Tick)
board.cache_hierarchy.cc_l3cache.demandMissLatency::processor.cores6.core.data       325341                       # number of demand (read+write) miss ticks (Tick)
board.cache_hierarchy.cc_l3cache.demandMissLatency::processor.cores7.core.inst       133533                       # number of demand (read+write) miss ticks (Tick)
board.cache_hierarchy.cc_l3cache.demandMissLatency::processor.cores7.core.data       282717                       # number of demand (read+write) miss ticks (Tick)
board.cache_hierarchy.cc_l3cache.demandMissLatency::total    102312558                       # number of demand (read+write) miss ticks (Tick)
board.cache_hierarchy.cc_l3cache.overallMissLatency::cache_hierarchy.l1dcaches0.prefetcher      6193141                       # number of overall miss ticks (Tick)
board.cache_hierarchy.cc_l3cache.overallMissLatency::cache_hierarchy.l1dcaches7.prefetcher        73593                       # number of overall miss ticks (Tick)
board.cache_hierarchy.cc_l3cache.overallMissLatency::cache_hierarchy.l2cache.prefetcher      8424200                       # number of overall miss ticks (Tick)
board.cache_hierarchy.cc_l3cache.overallMissLatency::processor.cores0.core.inst     54286326                       # number of overall miss ticks (Tick)
board.cache_hierarchy.cc_l3cache.overallMissLatency::processor.cores0.core.data     29146491                       # number of overall miss ticks (Tick)
board.cache_hierarchy.cc_l3cache.overallMissLatency::processor.cores1.core.inst      1110888                       # number of overall miss ticks (Tick)
board.cache_hierarchy.cc_l3cache.overallMissLatency::processor.cores1.core.data       397935                       # number of overall miss ticks (Tick)
board.cache_hierarchy.cc_l3cache.overallMissLatency::processor.cores2.core.inst       346986                       # number of overall miss ticks (Tick)
board.cache_hierarchy.cc_l3cache.overallMissLatency::processor.cores2.core.data       432900                       # number of overall miss ticks (Tick)
board.cache_hierarchy.cc_l3cache.overallMissLatency::processor.cores3.core.inst       119880                       # number of overall miss ticks (Tick)
board.cache_hierarchy.cc_l3cache.overallMissLatency::processor.cores3.core.data       316017                       # number of overall miss ticks (Tick)
board.cache_hierarchy.cc_l3cache.overallMissLatency::processor.cores4.core.inst        73593                       # number of overall miss ticks (Tick)
board.cache_hierarchy.cc_l3cache.overallMissLatency::processor.cores4.core.data       305361                       # number of overall miss ticks (Tick)
board.cache_hierarchy.cc_l3cache.overallMissLatency::processor.cores5.core.inst        50283                       # number of overall miss ticks (Tick)
board.cache_hierarchy.cc_l3cache.overallMissLatency::processor.cores5.core.data       293373                       # number of overall miss ticks (Tick)
board.cache_hierarchy.cc_l3cache.overallMissLatency::processor.cores6.core.data       325341                       # number of overall miss ticks (Tick)
board.cache_hierarchy.cc_l3cache.overallMissLatency::processor.cores7.core.inst       133533                       # number of overall miss ticks (Tick)
board.cache_hierarchy.cc_l3cache.overallMissLatency::processor.cores7.core.data       282717                       # number of overall miss ticks (Tick)
board.cache_hierarchy.cc_l3cache.overallMissLatency::total    102312558                       # number of overall miss ticks (Tick)
board.cache_hierarchy.cc_l3cache.demandAccesses::cache_hierarchy.l1dcaches0.prefetcher           80                       # number of demand (read+write) accesses (Count)
board.cache_hierarchy.cc_l3cache.demandAccesses::cache_hierarchy.l1dcaches7.prefetcher            1                       # number of demand (read+write) accesses (Count)
board.cache_hierarchy.cc_l3cache.demandAccesses::cache_hierarchy.l2cache.prefetcher          121                       # number of demand (read+write) accesses (Count)
board.cache_hierarchy.cc_l3cache.demandAccesses::processor.cores0.core.inst          955                       # number of demand (read+write) accesses (Count)
board.cache_hierarchy.cc_l3cache.demandAccesses::processor.cores0.core.data          476                       # number of demand (read+write) accesses (Count)
board.cache_hierarchy.cc_l3cache.demandAccesses::processor.cores1.core.inst           19                       # number of demand (read+write) accesses (Count)
board.cache_hierarchy.cc_l3cache.demandAccesses::processor.cores1.core.data            6                       # number of demand (read+write) accesses (Count)
board.cache_hierarchy.cc_l3cache.demandAccesses::processor.cores2.core.inst            5                       # number of demand (read+write) accesses (Count)
board.cache_hierarchy.cc_l3cache.demandAccesses::processor.cores2.core.data            7                       # number of demand (read+write) accesses (Count)
board.cache_hierarchy.cc_l3cache.demandAccesses::processor.cores3.core.inst            2                       # number of demand (read+write) accesses (Count)
board.cache_hierarchy.cc_l3cache.demandAccesses::processor.cores3.core.data            6                       # number of demand (read+write) accesses (Count)
board.cache_hierarchy.cc_l3cache.demandAccesses::processor.cores4.core.inst            1                       # number of demand (read+write) accesses (Count)
board.cache_hierarchy.cc_l3cache.demandAccesses::processor.cores4.core.data            6                       # number of demand (read+write) accesses (Count)
board.cache_hierarchy.cc_l3cache.demandAccesses::processor.cores5.core.inst            1                       # number of demand (read+write) accesses (Count)
board.cache_hierarchy.cc_l3cache.demandAccesses::processor.cores5.core.data            6                       # number of demand (read+write) accesses (Count)
board.cache_hierarchy.cc_l3cache.demandAccesses::processor.cores6.core.data            6                       # number of demand (read+write) accesses (Count)
board.cache_hierarchy.cc_l3cache.demandAccesses::processor.cores7.core.inst            2                       # number of demand (read+write) accesses (Count)
board.cache_hierarchy.cc_l3cache.demandAccesses::processor.cores7.core.data            6                       # number of demand (read+write) accesses (Count)
board.cache_hierarchy.cc_l3cache.demandAccesses::total         1706                       # number of demand (read+write) accesses (Count)
board.cache_hierarchy.cc_l3cache.overallAccesses::cache_hierarchy.l1dcaches0.prefetcher           80                       # number of overall (read+write) accesses (Count)
board.cache_hierarchy.cc_l3cache.overallAccesses::cache_hierarchy.l1dcaches7.prefetcher            1                       # number of overall (read+write) accesses (Count)
board.cache_hierarchy.cc_l3cache.overallAccesses::cache_hierarchy.l2cache.prefetcher          121                       # number of overall (read+write) accesses (Count)
board.cache_hierarchy.cc_l3cache.overallAccesses::processor.cores0.core.inst          955                       # number of overall (read+write) accesses (Count)
board.cache_hierarchy.cc_l3cache.overallAccesses::processor.cores0.core.data          476                       # number of overall (read+write) accesses (Count)
board.cache_hierarchy.cc_l3cache.overallAccesses::processor.cores1.core.inst           19                       # number of overall (read+write) accesses (Count)
board.cache_hierarchy.cc_l3cache.overallAccesses::processor.cores1.core.data            6                       # number of overall (read+write) accesses (Count)
board.cache_hierarchy.cc_l3cache.overallAccesses::processor.cores2.core.inst            5                       # number of overall (read+write) accesses (Count)
board.cache_hierarchy.cc_l3cache.overallAccesses::processor.cores2.core.data            7                       # number of overall (read+write) accesses (Count)
board.cache_hierarchy.cc_l3cache.overallAccesses::processor.cores3.core.inst            2                       # number of overall (read+write) accesses (Count)
board.cache_hierarchy.cc_l3cache.overallAccesses::processor.cores3.core.data            6                       # number of overall (read+write) accesses (Count)
board.cache_hierarchy.cc_l3cache.overallAccesses::processor.cores4.core.inst            1                       # number of overall (read+write) accesses (Count)
board.cache_hierarchy.cc_l3cache.overallAccesses::processor.cores4.core.data            6                       # number of overall (read+write) accesses (Count)
board.cache_hierarchy.cc_l3cache.overallAccesses::processor.cores5.core.inst            1                       # number of overall (read+write) accesses (Count)
board.cache_hierarchy.cc_l3cache.overallAccesses::processor.cores5.core.data            6                       # number of overall (read+write) accesses (Count)
board.cache_hierarchy.cc_l3cache.overallAccesses::processor.cores6.core.data            6                       # number of overall (read+write) accesses (Count)
board.cache_hierarchy.cc_l3cache.overallAccesses::processor.cores7.core.inst            2                       # number of overall (read+write) accesses (Count)
board.cache_hierarchy.cc_l3cache.overallAccesses::processor.cores7.core.data            6                       # number of overall (read+write) accesses (Count)
board.cache_hierarchy.cc_l3cache.overallAccesses::total         1706                       # number of overall (read+write) accesses (Count)
board.cache_hierarchy.cc_l3cache.demandMissRate::cache_hierarchy.l1dcaches0.prefetcher     0.862500                       # miss rate for demand accesses (Ratio)
board.cache_hierarchy.cc_l3cache.demandMissRate::cache_hierarchy.l1dcaches7.prefetcher            1                       # miss rate for demand accesses (Ratio)
board.cache_hierarchy.cc_l3cache.demandMissRate::cache_hierarchy.l2cache.prefetcher     0.925620                       # miss rate for demand accesses (Ratio)
board.cache_hierarchy.cc_l3cache.demandMissRate::processor.cores0.core.inst            1                       # miss rate for demand accesses (Ratio)
board.cache_hierarchy.cc_l3cache.demandMissRate::processor.cores0.core.data     0.974790                       # miss rate for demand accesses (Ratio)
board.cache_hierarchy.cc_l3cache.demandMissRate::processor.cores1.core.inst            1                       # miss rate for demand accesses (Ratio)
board.cache_hierarchy.cc_l3cache.demandMissRate::processor.cores1.core.data            1                       # miss rate for demand accesses (Ratio)
board.cache_hierarchy.cc_l3cache.demandMissRate::processor.cores2.core.inst            1                       # miss rate for demand accesses (Ratio)
board.cache_hierarchy.cc_l3cache.demandMissRate::processor.cores2.core.data            1                       # miss rate for demand accesses (Ratio)
board.cache_hierarchy.cc_l3cache.demandMissRate::processor.cores3.core.inst            1                       # miss rate for demand accesses (Ratio)
board.cache_hierarchy.cc_l3cache.demandMissRate::processor.cores3.core.data            1                       # miss rate for demand accesses (Ratio)
board.cache_hierarchy.cc_l3cache.demandMissRate::processor.cores4.core.inst            1                       # miss rate for demand accesses (Ratio)
board.cache_hierarchy.cc_l3cache.demandMissRate::processor.cores4.core.data            1                       # miss rate for demand accesses (Ratio)
board.cache_hierarchy.cc_l3cache.demandMissRate::processor.cores5.core.inst            1                       # miss rate for demand accesses (Ratio)
board.cache_hierarchy.cc_l3cache.demandMissRate::processor.cores5.core.data            1                       # miss rate for demand accesses (Ratio)
board.cache_hierarchy.cc_l3cache.demandMissRate::processor.cores6.core.data            1                       # miss rate for demand accesses (Ratio)
board.cache_hierarchy.cc_l3cache.demandMissRate::processor.cores7.core.inst            1                       # miss rate for demand accesses (Ratio)
board.cache_hierarchy.cc_l3cache.demandMissRate::processor.cores7.core.data            1                       # miss rate for demand accesses (Ratio)
board.cache_hierarchy.cc_l3cache.demandMissRate::total     0.981243                       # miss rate for demand accesses (Ratio)
board.cache_hierarchy.cc_l3cache.overallMissRate::cache_hierarchy.l1dcaches0.prefetcher     0.862500                       # miss rate for overall accesses (Ratio)
board.cache_hierarchy.cc_l3cache.overallMissRate::cache_hierarchy.l1dcaches7.prefetcher            1                       # miss rate for overall accesses (Ratio)
board.cache_hierarchy.cc_l3cache.overallMissRate::cache_hierarchy.l2cache.prefetcher     0.925620                       # miss rate for overall accesses (Ratio)
board.cache_hierarchy.cc_l3cache.overallMissRate::processor.cores0.core.inst            1                       # miss rate for overall accesses (Ratio)
board.cache_hierarchy.cc_l3cache.overallMissRate::processor.cores0.core.data     0.974790                       # miss rate for overall accesses (Ratio)
board.cache_hierarchy.cc_l3cache.overallMissRate::processor.cores1.core.inst            1                       # miss rate for overall accesses (Ratio)
board.cache_hierarchy.cc_l3cache.overallMissRate::processor.cores1.core.data            1                       # miss rate for overall accesses (Ratio)
board.cache_hierarchy.cc_l3cache.overallMissRate::processor.cores2.core.inst            1                       # miss rate for overall accesses (Ratio)
board.cache_hierarchy.cc_l3cache.overallMissRate::processor.cores2.core.data            1                       # miss rate for overall accesses (Ratio)
board.cache_hierarchy.cc_l3cache.overallMissRate::processor.cores3.core.inst            1                       # miss rate for overall accesses (Ratio)
board.cache_hierarchy.cc_l3cache.overallMissRate::processor.cores3.core.data            1                       # miss rate for overall accesses (Ratio)
board.cache_hierarchy.cc_l3cache.overallMissRate::processor.cores4.core.inst            1                       # miss rate for overall accesses (Ratio)
board.cache_hierarchy.cc_l3cache.overallMissRate::processor.cores4.core.data            1                       # miss rate for overall accesses (Ratio)
board.cache_hierarchy.cc_l3cache.overallMissRate::processor.cores5.core.inst            1                       # miss rate for overall accesses (Ratio)
board.cache_hierarchy.cc_l3cache.overallMissRate::processor.cores5.core.data            1                       # miss rate for overall accesses (Ratio)
board.cache_hierarchy.cc_l3cache.overallMissRate::processor.cores6.core.data            1                       # miss rate for overall accesses (Ratio)
board.cache_hierarchy.cc_l3cache.overallMissRate::processor.cores7.core.inst            1                       # miss rate for overall accesses (Ratio)
board.cache_hierarchy.cc_l3cache.overallMissRate::processor.cores7.core.data            1                       # miss rate for overall accesses (Ratio)
board.cache_hierarchy.cc_l3cache.overallMissRate::total     0.981243                       # miss rate for overall accesses (Ratio)
board.cache_hierarchy.cc_l3cache.demandAvgMissLatency::cache_hierarchy.l1dcaches0.prefetcher 89755.666667                       # average overall miss latency in ticks ((Tick/Count))
board.cache_hierarchy.cc_l3cache.demandAvgMissLatency::cache_hierarchy.l1dcaches7.prefetcher        73593                       # average overall miss latency in ticks ((Tick/Count))
board.cache_hierarchy.cc_l3cache.demandAvgMissLatency::cache_hierarchy.l2cache.prefetcher 75216.071429                       # average overall miss latency in ticks ((Tick/Count))
board.cache_hierarchy.cc_l3cache.demandAvgMissLatency::processor.cores0.core.inst 56844.320419                       # average overall miss latency in ticks ((Tick/Count))
board.cache_hierarchy.cc_l3cache.demandAvgMissLatency::processor.cores0.core.data 62815.713362                       # average overall miss latency in ticks ((Tick/Count))
board.cache_hierarchy.cc_l3cache.demandAvgMissLatency::processor.cores1.core.inst 58467.789474                       # average overall miss latency in ticks ((Tick/Count))
board.cache_hierarchy.cc_l3cache.demandAvgMissLatency::processor.cores1.core.data 66322.500000                       # average overall miss latency in ticks ((Tick/Count))
board.cache_hierarchy.cc_l3cache.demandAvgMissLatency::processor.cores2.core.inst 69397.200000                       # average overall miss latency in ticks ((Tick/Count))
board.cache_hierarchy.cc_l3cache.demandAvgMissLatency::processor.cores2.core.data 61842.857143                       # average overall miss latency in ticks ((Tick/Count))
board.cache_hierarchy.cc_l3cache.demandAvgMissLatency::processor.cores3.core.inst        59940                       # average overall miss latency in ticks ((Tick/Count))
board.cache_hierarchy.cc_l3cache.demandAvgMissLatency::processor.cores3.core.data 52669.500000                       # average overall miss latency in ticks ((Tick/Count))
board.cache_hierarchy.cc_l3cache.demandAvgMissLatency::processor.cores4.core.inst        73593                       # average overall miss latency in ticks ((Tick/Count))
board.cache_hierarchy.cc_l3cache.demandAvgMissLatency::processor.cores4.core.data 50893.500000                       # average overall miss latency in ticks ((Tick/Count))
board.cache_hierarchy.cc_l3cache.demandAvgMissLatency::processor.cores5.core.inst        50283                       # average overall miss latency in ticks ((Tick/Count))
board.cache_hierarchy.cc_l3cache.demandAvgMissLatency::processor.cores5.core.data 48895.500000                       # average overall miss latency in ticks ((Tick/Count))
board.cache_hierarchy.cc_l3cache.demandAvgMissLatency::processor.cores6.core.data 54223.500000                       # average overall miss latency in ticks ((Tick/Count))
board.cache_hierarchy.cc_l3cache.demandAvgMissLatency::processor.cores7.core.inst 66766.500000                       # average overall miss latency in ticks ((Tick/Count))
board.cache_hierarchy.cc_l3cache.demandAvgMissLatency::processor.cores7.core.data 47119.500000                       # average overall miss latency in ticks ((Tick/Count))
board.cache_hierarchy.cc_l3cache.demandAvgMissLatency::total 61118.612903                       # average overall miss latency in ticks ((Tick/Count))
board.cache_hierarchy.cc_l3cache.overallAvgMissLatency::cache_hierarchy.l1dcaches0.prefetcher 89755.666667                       # average overall miss latency ((Tick/Count))
board.cache_hierarchy.cc_l3cache.overallAvgMissLatency::cache_hierarchy.l1dcaches7.prefetcher        73593                       # average overall miss latency ((Tick/Count))
board.cache_hierarchy.cc_l3cache.overallAvgMissLatency::cache_hierarchy.l2cache.prefetcher 75216.071429                       # average overall miss latency ((Tick/Count))
board.cache_hierarchy.cc_l3cache.overallAvgMissLatency::processor.cores0.core.inst 56844.320419                       # average overall miss latency ((Tick/Count))
board.cache_hierarchy.cc_l3cache.overallAvgMissLatency::processor.cores0.core.data 62815.713362                       # average overall miss latency ((Tick/Count))
board.cache_hierarchy.cc_l3cache.overallAvgMissLatency::processor.cores1.core.inst 58467.789474                       # average overall miss latency ((Tick/Count))
board.cache_hierarchy.cc_l3cache.overallAvgMissLatency::processor.cores1.core.data 66322.500000                       # average overall miss latency ((Tick/Count))
board.cache_hierarchy.cc_l3cache.overallAvgMissLatency::processor.cores2.core.inst 69397.200000                       # average overall miss latency ((Tick/Count))
board.cache_hierarchy.cc_l3cache.overallAvgMissLatency::processor.cores2.core.data 61842.857143                       # average overall miss latency ((Tick/Count))
board.cache_hierarchy.cc_l3cache.overallAvgMissLatency::processor.cores3.core.inst        59940                       # average overall miss latency ((Tick/Count))
board.cache_hierarchy.cc_l3cache.overallAvgMissLatency::processor.cores3.core.data 52669.500000                       # average overall miss latency ((Tick/Count))
board.cache_hierarchy.cc_l3cache.overallAvgMissLatency::processor.cores4.core.inst        73593                       # average overall miss latency ((Tick/Count))
board.cache_hierarchy.cc_l3cache.overallAvgMissLatency::processor.cores4.core.data 50893.500000                       # average overall miss latency ((Tick/Count))
board.cache_hierarchy.cc_l3cache.overallAvgMissLatency::processor.cores5.core.inst        50283                       # average overall miss latency ((Tick/Count))
board.cache_hierarchy.cc_l3cache.overallAvgMissLatency::processor.cores5.core.data 48895.500000                       # average overall miss latency ((Tick/Count))
board.cache_hierarchy.cc_l3cache.overallAvgMissLatency::processor.cores6.core.data 54223.500000                       # average overall miss latency ((Tick/Count))
board.cache_hierarchy.cc_l3cache.overallAvgMissLatency::processor.cores7.core.inst 66766.500000                       # average overall miss latency ((Tick/Count))
board.cache_hierarchy.cc_l3cache.overallAvgMissLatency::processor.cores7.core.data 47119.500000                       # average overall miss latency ((Tick/Count))
board.cache_hierarchy.cc_l3cache.overallAvgMissLatency::total 61118.612903                       # average overall miss latency ((Tick/Count))
board.cache_hierarchy.cc_l3cache.blockedCycles::no_mshrs            0                       # number of cycles access was blocked (Cycle)
board.cache_hierarchy.cc_l3cache.blockedCycles::no_targets            0                       # number of cycles access was blocked (Cycle)
board.cache_hierarchy.cc_l3cache.blockedCauses::no_mshrs            0                       # number of times access was blocked (Count)
board.cache_hierarchy.cc_l3cache.blockedCauses::no_targets            0                       # number of times access was blocked (Count)
board.cache_hierarchy.cc_l3cache.avgBlocked::no_mshrs          nan                       # average number of cycles each access was blocked ((Cycle/Count))
board.cache_hierarchy.cc_l3cache.avgBlocked::no_targets          nan                       # average number of cycles each access was blocked ((Cycle/Count))
board.cache_hierarchy.cc_l3cache.demandMshrHits::cache_hierarchy.l1dcaches0.prefetcher            2                       # number of demand (read+write) MSHR hits (Count)
board.cache_hierarchy.cc_l3cache.demandMshrHits::cache_hierarchy.l2cache.prefetcher           12                       # number of demand (read+write) MSHR hits (Count)
board.cache_hierarchy.cc_l3cache.demandMshrHits::total           14                       # number of demand (read+write) MSHR hits (Count)
board.cache_hierarchy.cc_l3cache.overallMshrHits::cache_hierarchy.l1dcaches0.prefetcher            2                       # number of overall MSHR hits (Count)
board.cache_hierarchy.cc_l3cache.overallMshrHits::cache_hierarchy.l2cache.prefetcher           12                       # number of overall MSHR hits (Count)
board.cache_hierarchy.cc_l3cache.overallMshrHits::total           14                       # number of overall MSHR hits (Count)
board.cache_hierarchy.cc_l3cache.demandMshrMisses::cache_hierarchy.l1dcaches0.prefetcher           67                       # number of demand (read+write) MSHR misses (Count)
board.cache_hierarchy.cc_l3cache.demandMshrMisses::cache_hierarchy.l1dcaches7.prefetcher            1                       # number of demand (read+write) MSHR misses (Count)
board.cache_hierarchy.cc_l3cache.demandMshrMisses::cache_hierarchy.l2cache.prefetcher          100                       # number of demand (read+write) MSHR misses (Count)
board.cache_hierarchy.cc_l3cache.demandMshrMisses::processor.cores0.core.inst          955                       # number of demand (read+write) MSHR misses (Count)
board.cache_hierarchy.cc_l3cache.demandMshrMisses::processor.cores0.core.data          464                       # number of demand (read+write) MSHR misses (Count)
board.cache_hierarchy.cc_l3cache.demandMshrMisses::processor.cores1.core.inst           19                       # number of demand (read+write) MSHR misses (Count)
board.cache_hierarchy.cc_l3cache.demandMshrMisses::processor.cores1.core.data            6                       # number of demand (read+write) MSHR misses (Count)
board.cache_hierarchy.cc_l3cache.demandMshrMisses::processor.cores2.core.inst            5                       # number of demand (read+write) MSHR misses (Count)
board.cache_hierarchy.cc_l3cache.demandMshrMisses::processor.cores2.core.data            7                       # number of demand (read+write) MSHR misses (Count)
board.cache_hierarchy.cc_l3cache.demandMshrMisses::processor.cores3.core.inst            2                       # number of demand (read+write) MSHR misses (Count)
board.cache_hierarchy.cc_l3cache.demandMshrMisses::processor.cores3.core.data            6                       # number of demand (read+write) MSHR misses (Count)
board.cache_hierarchy.cc_l3cache.demandMshrMisses::processor.cores4.core.inst            1                       # number of demand (read+write) MSHR misses (Count)
board.cache_hierarchy.cc_l3cache.demandMshrMisses::processor.cores4.core.data            6                       # number of demand (read+write) MSHR misses (Count)
board.cache_hierarchy.cc_l3cache.demandMshrMisses::processor.cores5.core.inst            1                       # number of demand (read+write) MSHR misses (Count)
board.cache_hierarchy.cc_l3cache.demandMshrMisses::processor.cores5.core.data            6                       # number of demand (read+write) MSHR misses (Count)
board.cache_hierarchy.cc_l3cache.demandMshrMisses::processor.cores6.core.data            6                       # number of demand (read+write) MSHR misses (Count)
board.cache_hierarchy.cc_l3cache.demandMshrMisses::processor.cores7.core.inst            2                       # number of demand (read+write) MSHR misses (Count)
board.cache_hierarchy.cc_l3cache.demandMshrMisses::processor.cores7.core.data            6                       # number of demand (read+write) MSHR misses (Count)
board.cache_hierarchy.cc_l3cache.demandMshrMisses::total         1660                       # number of demand (read+write) MSHR misses (Count)
board.cache_hierarchy.cc_l3cache.overallMshrMisses::cache_hierarchy.cc_l3cache.prefetcher           66                       # number of overall MSHR misses (Count)
board.cache_hierarchy.cc_l3cache.overallMshrMisses::cache_hierarchy.l1dcaches0.prefetcher           67                       # number of overall MSHR misses (Count)
board.cache_hierarchy.cc_l3cache.overallMshrMisses::cache_hierarchy.l1dcaches7.prefetcher            1                       # number of overall MSHR misses (Count)
board.cache_hierarchy.cc_l3cache.overallMshrMisses::cache_hierarchy.l2cache.prefetcher          100                       # number of overall MSHR misses (Count)
board.cache_hierarchy.cc_l3cache.overallMshrMisses::processor.cores0.core.inst          955                       # number of overall MSHR misses (Count)
board.cache_hierarchy.cc_l3cache.overallMshrMisses::processor.cores0.core.data          464                       # number of overall MSHR misses (Count)
board.cache_hierarchy.cc_l3cache.overallMshrMisses::processor.cores1.core.inst           19                       # number of overall MSHR misses (Count)
board.cache_hierarchy.cc_l3cache.overallMshrMisses::processor.cores1.core.data            6                       # number of overall MSHR misses (Count)
board.cache_hierarchy.cc_l3cache.overallMshrMisses::processor.cores2.core.inst            5                       # number of overall MSHR misses (Count)
board.cache_hierarchy.cc_l3cache.overallMshrMisses::processor.cores2.core.data            7                       # number of overall MSHR misses (Count)
board.cache_hierarchy.cc_l3cache.overallMshrMisses::processor.cores3.core.inst            2                       # number of overall MSHR misses (Count)
board.cache_hierarchy.cc_l3cache.overallMshrMisses::processor.cores3.core.data            6                       # number of overall MSHR misses (Count)
board.cache_hierarchy.cc_l3cache.overallMshrMisses::processor.cores4.core.inst            1                       # number of overall MSHR misses (Count)
board.cache_hierarchy.cc_l3cache.overallMshrMisses::processor.cores4.core.data            6                       # number of overall MSHR misses (Count)
board.cache_hierarchy.cc_l3cache.overallMshrMisses::processor.cores5.core.inst            1                       # number of overall MSHR misses (Count)
board.cache_hierarchy.cc_l3cache.overallMshrMisses::processor.cores5.core.data            6                       # number of overall MSHR misses (Count)
board.cache_hierarchy.cc_l3cache.overallMshrMisses::processor.cores6.core.data            6                       # number of overall MSHR misses (Count)
board.cache_hierarchy.cc_l3cache.overallMshrMisses::processor.cores7.core.inst            2                       # number of overall MSHR misses (Count)
board.cache_hierarchy.cc_l3cache.overallMshrMisses::processor.cores7.core.data            6                       # number of overall MSHR misses (Count)
board.cache_hierarchy.cc_l3cache.overallMshrMisses::total         1726                       # number of overall MSHR misses (Count)
board.cache_hierarchy.cc_l3cache.demandMshrMissLatency::cache_hierarchy.l1dcaches0.prefetcher      6053611                       # number of demand (read+write) MSHR miss ticks (Tick)
board.cache_hierarchy.cc_l3cache.demandMshrMissLatency::cache_hierarchy.l1dcaches7.prefetcher        73260                       # number of demand (read+write) MSHR miss ticks (Tick)
board.cache_hierarchy.cc_l3cache.demandMshrMissLatency::cache_hierarchy.l2cache.prefetcher      7831154                       # number of demand (read+write) MSHR miss ticks (Tick)
board.cache_hierarchy.cc_l3cache.demandMshrMissLatency::processor.cores0.core.inst     53968644                       # number of demand (read+write) MSHR miss ticks (Tick)
board.cache_hierarchy.cc_l3cache.demandMshrMissLatency::processor.cores0.core.data     28991979                       # number of demand (read+write) MSHR miss ticks (Tick)
board.cache_hierarchy.cc_l3cache.demandMshrMissLatency::processor.cores1.core.inst      1104561                       # number of demand (read+write) MSHR miss ticks (Tick)
board.cache_hierarchy.cc_l3cache.demandMshrMissLatency::processor.cores1.core.data       395937                       # number of demand (read+write) MSHR miss ticks (Tick)
board.cache_hierarchy.cc_l3cache.demandMshrMissLatency::processor.cores2.core.inst       345321                       # number of demand (read+write) MSHR miss ticks (Tick)
board.cache_hierarchy.cc_l3cache.demandMshrMissLatency::processor.cores2.core.data       430569                       # number of demand (read+write) MSHR miss ticks (Tick)
board.cache_hierarchy.cc_l3cache.demandMshrMissLatency::processor.cores3.core.inst       119214                       # number of demand (read+write) MSHR miss ticks (Tick)
board.cache_hierarchy.cc_l3cache.demandMshrMissLatency::processor.cores3.core.data       314019                       # number of demand (read+write) MSHR miss ticks (Tick)
board.cache_hierarchy.cc_l3cache.demandMshrMissLatency::processor.cores4.core.inst        73260                       # number of demand (read+write) MSHR miss ticks (Tick)
board.cache_hierarchy.cc_l3cache.demandMshrMissLatency::processor.cores4.core.data       303363                       # number of demand (read+write) MSHR miss ticks (Tick)
board.cache_hierarchy.cc_l3cache.demandMshrMissLatency::processor.cores5.core.inst        49950                       # number of demand (read+write) MSHR miss ticks (Tick)
board.cache_hierarchy.cc_l3cache.demandMshrMissLatency::processor.cores5.core.data       291375                       # number of demand (read+write) MSHR miss ticks (Tick)
board.cache_hierarchy.cc_l3cache.demandMshrMissLatency::processor.cores6.core.data       323343                       # number of demand (read+write) MSHR miss ticks (Tick)
board.cache_hierarchy.cc_l3cache.demandMshrMissLatency::processor.cores7.core.inst       132867                       # number of demand (read+write) MSHR miss ticks (Tick)
board.cache_hierarchy.cc_l3cache.demandMshrMissLatency::processor.cores7.core.data       280719                       # number of demand (read+write) MSHR miss ticks (Tick)
board.cache_hierarchy.cc_l3cache.demandMshrMissLatency::total    101083146                       # number of demand (read+write) MSHR miss ticks (Tick)
board.cache_hierarchy.cc_l3cache.overallMshrMissLatency::cache_hierarchy.cc_l3cache.prefetcher      4530735                       # number of overall MSHR miss ticks (Tick)
board.cache_hierarchy.cc_l3cache.overallMshrMissLatency::cache_hierarchy.l1dcaches0.prefetcher      6053611                       # number of overall MSHR miss ticks (Tick)
board.cache_hierarchy.cc_l3cache.overallMshrMissLatency::cache_hierarchy.l1dcaches7.prefetcher        73260                       # number of overall MSHR miss ticks (Tick)
board.cache_hierarchy.cc_l3cache.overallMshrMissLatency::cache_hierarchy.l2cache.prefetcher      7831154                       # number of overall MSHR miss ticks (Tick)
board.cache_hierarchy.cc_l3cache.overallMshrMissLatency::processor.cores0.core.inst     53968644                       # number of overall MSHR miss ticks (Tick)
board.cache_hierarchy.cc_l3cache.overallMshrMissLatency::processor.cores0.core.data     28991979                       # number of overall MSHR miss ticks (Tick)
board.cache_hierarchy.cc_l3cache.overallMshrMissLatency::processor.cores1.core.inst      1104561                       # number of overall MSHR miss ticks (Tick)
board.cache_hierarchy.cc_l3cache.overallMshrMissLatency::processor.cores1.core.data       395937                       # number of overall MSHR miss ticks (Tick)
board.cache_hierarchy.cc_l3cache.overallMshrMissLatency::processor.cores2.core.inst       345321                       # number of overall MSHR miss ticks (Tick)
board.cache_hierarchy.cc_l3cache.overallMshrMissLatency::processor.cores2.core.data       430569                       # number of overall MSHR miss ticks (Tick)
board.cache_hierarchy.cc_l3cache.overallMshrMissLatency::processor.cores3.core.inst       119214                       # number of overall MSHR miss ticks (Tick)
board.cache_hierarchy.cc_l3cache.overallMshrMissLatency::processor.cores3.core.data       314019                       # number of overall MSHR miss ticks (Tick)
board.cache_hierarchy.cc_l3cache.overallMshrMissLatency::processor.cores4.core.inst        73260                       # number of overall MSHR miss ticks (Tick)
board.cache_hierarchy.cc_l3cache.overallMshrMissLatency::processor.cores4.core.data       303363                       # number of overall MSHR miss ticks (Tick)
board.cache_hierarchy.cc_l3cache.overallMshrMissLatency::processor.cores5.core.inst        49950                       # number of overall MSHR miss ticks (Tick)
board.cache_hierarchy.cc_l3cache.overallMshrMissLatency::processor.cores5.core.data       291375                       # number of overall MSHR miss ticks (Tick)
board.cache_hierarchy.cc_l3cache.overallMshrMissLatency::processor.cores6.core.data       323343                       # number of overall MSHR miss ticks (Tick)
board.cache_hierarchy.cc_l3cache.overallMshrMissLatency::processor.cores7.core.inst       132867                       # number of overall MSHR miss ticks (Tick)
board.cache_hierarchy.cc_l3cache.overallMshrMissLatency::processor.cores7.core.data       280719                       # number of overall MSHR miss ticks (Tick)
board.cache_hierarchy.cc_l3cache.overallMshrMissLatency::total    105613881                       # number of overall MSHR miss ticks (Tick)
board.cache_hierarchy.cc_l3cache.demandMshrMissRate::cache_hierarchy.l1dcaches0.prefetcher     0.837500                       # mshr miss ratio for demand accesses (Ratio)
board.cache_hierarchy.cc_l3cache.demandMshrMissRate::cache_hierarchy.l1dcaches7.prefetcher            1                       # mshr miss ratio for demand accesses (Ratio)
board.cache_hierarchy.cc_l3cache.demandMshrMissRate::cache_hierarchy.l2cache.prefetcher     0.826446                       # mshr miss ratio for demand accesses (Ratio)
board.cache_hierarchy.cc_l3cache.demandMshrMissRate::processor.cores0.core.inst            1                       # mshr miss ratio for demand accesses (Ratio)
board.cache_hierarchy.cc_l3cache.demandMshrMissRate::processor.cores0.core.data     0.974790                       # mshr miss ratio for demand accesses (Ratio)
board.cache_hierarchy.cc_l3cache.demandMshrMissRate::processor.cores1.core.inst            1                       # mshr miss ratio for demand accesses (Ratio)
board.cache_hierarchy.cc_l3cache.demandMshrMissRate::processor.cores1.core.data            1                       # mshr miss ratio for demand accesses (Ratio)
board.cache_hierarchy.cc_l3cache.demandMshrMissRate::processor.cores2.core.inst            1                       # mshr miss ratio for demand accesses (Ratio)
board.cache_hierarchy.cc_l3cache.demandMshrMissRate::processor.cores2.core.data            1                       # mshr miss ratio for demand accesses (Ratio)
board.cache_hierarchy.cc_l3cache.demandMshrMissRate::processor.cores3.core.inst            1                       # mshr miss ratio for demand accesses (Ratio)
board.cache_hierarchy.cc_l3cache.demandMshrMissRate::processor.cores3.core.data            1                       # mshr miss ratio for demand accesses (Ratio)
board.cache_hierarchy.cc_l3cache.demandMshrMissRate::processor.cores4.core.inst            1                       # mshr miss ratio for demand accesses (Ratio)
board.cache_hierarchy.cc_l3cache.demandMshrMissRate::processor.cores4.core.data            1                       # mshr miss ratio for demand accesses (Ratio)
board.cache_hierarchy.cc_l3cache.demandMshrMissRate::processor.cores5.core.inst            1                       # mshr miss ratio for demand accesses (Ratio)
board.cache_hierarchy.cc_l3cache.demandMshrMissRate::processor.cores5.core.data            1                       # mshr miss ratio for demand accesses (Ratio)
board.cache_hierarchy.cc_l3cache.demandMshrMissRate::processor.cores6.core.data            1                       # mshr miss ratio for demand accesses (Ratio)
board.cache_hierarchy.cc_l3cache.demandMshrMissRate::processor.cores7.core.inst            1                       # mshr miss ratio for demand accesses (Ratio)
board.cache_hierarchy.cc_l3cache.demandMshrMissRate::processor.cores7.core.data            1                       # mshr miss ratio for demand accesses (Ratio)
board.cache_hierarchy.cc_l3cache.demandMshrMissRate::total     0.973036                       # mshr miss ratio for demand accesses (Ratio)
board.cache_hierarchy.cc_l3cache.overallMshrMissRate::cache_hierarchy.cc_l3cache.prefetcher          inf                       # mshr miss ratio for overall accesses (Ratio)
board.cache_hierarchy.cc_l3cache.overallMshrMissRate::cache_hierarchy.l1dcaches0.prefetcher     0.837500                       # mshr miss ratio for overall accesses (Ratio)
board.cache_hierarchy.cc_l3cache.overallMshrMissRate::cache_hierarchy.l1dcaches7.prefetcher            1                       # mshr miss ratio for overall accesses (Ratio)
board.cache_hierarchy.cc_l3cache.overallMshrMissRate::cache_hierarchy.l2cache.prefetcher     0.826446                       # mshr miss ratio for overall accesses (Ratio)
board.cache_hierarchy.cc_l3cache.overallMshrMissRate::processor.cores0.core.inst            1                       # mshr miss ratio for overall accesses (Ratio)
board.cache_hierarchy.cc_l3cache.overallMshrMissRate::processor.cores0.core.data     0.974790                       # mshr miss ratio for overall accesses (Ratio)
board.cache_hierarchy.cc_l3cache.overallMshrMissRate::processor.cores1.core.inst            1                       # mshr miss ratio for overall accesses (Ratio)
board.cache_hierarchy.cc_l3cache.overallMshrMissRate::processor.cores1.core.data            1                       # mshr miss ratio for overall accesses (Ratio)
board.cache_hierarchy.cc_l3cache.overallMshrMissRate::processor.cores2.core.inst            1                       # mshr miss ratio for overall accesses (Ratio)
board.cache_hierarchy.cc_l3cache.overallMshrMissRate::processor.cores2.core.data            1                       # mshr miss ratio for overall accesses (Ratio)
board.cache_hierarchy.cc_l3cache.overallMshrMissRate::processor.cores3.core.inst            1                       # mshr miss ratio for overall accesses (Ratio)
board.cache_hierarchy.cc_l3cache.overallMshrMissRate::processor.cores3.core.data            1                       # mshr miss ratio for overall accesses (Ratio)
board.cache_hierarchy.cc_l3cache.overallMshrMissRate::processor.cores4.core.inst            1                       # mshr miss ratio for overall accesses (Ratio)
board.cache_hierarchy.cc_l3cache.overallMshrMissRate::processor.cores4.core.data            1                       # mshr miss ratio for overall accesses (Ratio)
board.cache_hierarchy.cc_l3cache.overallMshrMissRate::processor.cores5.core.inst            1                       # mshr miss ratio for overall accesses (Ratio)
board.cache_hierarchy.cc_l3cache.overallMshrMissRate::processor.cores5.core.data            1                       # mshr miss ratio for overall accesses (Ratio)
board.cache_hierarchy.cc_l3cache.overallMshrMissRate::processor.cores6.core.data            1                       # mshr miss ratio for overall accesses (Ratio)
board.cache_hierarchy.cc_l3cache.overallMshrMissRate::processor.cores7.core.inst            1                       # mshr miss ratio for overall accesses (Ratio)
board.cache_hierarchy.cc_l3cache.overallMshrMissRate::processor.cores7.core.data            1                       # mshr miss ratio for overall accesses (Ratio)
board.cache_hierarchy.cc_l3cache.overallMshrMissRate::total     1.011723                       # mshr miss ratio for overall accesses (Ratio)
board.cache_hierarchy.cc_l3cache.demandAvgMshrMissLatency::cache_hierarchy.l1dcaches0.prefetcher 90352.402985                       # average overall mshr miss latency ((Tick/Count))
board.cache_hierarchy.cc_l3cache.demandAvgMshrMissLatency::cache_hierarchy.l1dcaches7.prefetcher        73260                       # average overall mshr miss latency ((Tick/Count))
board.cache_hierarchy.cc_l3cache.demandAvgMshrMissLatency::cache_hierarchy.l2cache.prefetcher 78311.540000                       # average overall mshr miss latency ((Tick/Count))
board.cache_hierarchy.cc_l3cache.demandAvgMshrMissLatency::processor.cores0.core.inst 56511.669110                       # average overall mshr miss latency ((Tick/Count))
board.cache_hierarchy.cc_l3cache.demandAvgMshrMissLatency::processor.cores0.core.data 62482.713362                       # average overall mshr miss latency ((Tick/Count))
board.cache_hierarchy.cc_l3cache.demandAvgMshrMissLatency::processor.cores1.core.inst 58134.789474                       # average overall mshr miss latency ((Tick/Count))
board.cache_hierarchy.cc_l3cache.demandAvgMshrMissLatency::processor.cores1.core.data 65989.500000                       # average overall mshr miss latency ((Tick/Count))
board.cache_hierarchy.cc_l3cache.demandAvgMshrMissLatency::processor.cores2.core.inst 69064.200000                       # average overall mshr miss latency ((Tick/Count))
board.cache_hierarchy.cc_l3cache.demandAvgMshrMissLatency::processor.cores2.core.data 61509.857143                       # average overall mshr miss latency ((Tick/Count))
board.cache_hierarchy.cc_l3cache.demandAvgMshrMissLatency::processor.cores3.core.inst        59607                       # average overall mshr miss latency ((Tick/Count))
board.cache_hierarchy.cc_l3cache.demandAvgMshrMissLatency::processor.cores3.core.data 52336.500000                       # average overall mshr miss latency ((Tick/Count))
board.cache_hierarchy.cc_l3cache.demandAvgMshrMissLatency::processor.cores4.core.inst        73260                       # average overall mshr miss latency ((Tick/Count))
board.cache_hierarchy.cc_l3cache.demandAvgMshrMissLatency::processor.cores4.core.data 50560.500000                       # average overall mshr miss latency ((Tick/Count))
board.cache_hierarchy.cc_l3cache.demandAvgMshrMissLatency::processor.cores5.core.inst        49950                       # average overall mshr miss latency ((Tick/Count))
board.cache_hierarchy.cc_l3cache.demandAvgMshrMissLatency::processor.cores5.core.data 48562.500000                       # average overall mshr miss latency ((Tick/Count))
board.cache_hierarchy.cc_l3cache.demandAvgMshrMissLatency::processor.cores6.core.data 53890.500000                       # average overall mshr miss latency ((Tick/Count))
board.cache_hierarchy.cc_l3cache.demandAvgMshrMissLatency::processor.cores7.core.inst 66433.500000                       # average overall mshr miss latency ((Tick/Count))
board.cache_hierarchy.cc_l3cache.demandAvgMshrMissLatency::processor.cores7.core.data 46786.500000                       # average overall mshr miss latency ((Tick/Count))
board.cache_hierarchy.cc_l3cache.demandAvgMshrMissLatency::total 60893.461446                       # average overall mshr miss latency ((Tick/Count))
board.cache_hierarchy.cc_l3cache.overallAvgMshrMissLatency::cache_hierarchy.cc_l3cache.prefetcher 68647.500000                       # average overall mshr miss latency ((Tick/Count))
board.cache_hierarchy.cc_l3cache.overallAvgMshrMissLatency::cache_hierarchy.l1dcaches0.prefetcher 90352.402985                       # average overall mshr miss latency ((Tick/Count))
board.cache_hierarchy.cc_l3cache.overallAvgMshrMissLatency::cache_hierarchy.l1dcaches7.prefetcher        73260                       # average overall mshr miss latency ((Tick/Count))
board.cache_hierarchy.cc_l3cache.overallAvgMshrMissLatency::cache_hierarchy.l2cache.prefetcher 78311.540000                       # average overall mshr miss latency ((Tick/Count))
board.cache_hierarchy.cc_l3cache.overallAvgMshrMissLatency::processor.cores0.core.inst 56511.669110                       # average overall mshr miss latency ((Tick/Count))
board.cache_hierarchy.cc_l3cache.overallAvgMshrMissLatency::processor.cores0.core.data 62482.713362                       # average overall mshr miss latency ((Tick/Count))
board.cache_hierarchy.cc_l3cache.overallAvgMshrMissLatency::processor.cores1.core.inst 58134.789474                       # average overall mshr miss latency ((Tick/Count))
board.cache_hierarchy.cc_l3cache.overallAvgMshrMissLatency::processor.cores1.core.data 65989.500000                       # average overall mshr miss latency ((Tick/Count))
board.cache_hierarchy.cc_l3cache.overallAvgMshrMissLatency::processor.cores2.core.inst 69064.200000                       # average overall mshr miss latency ((Tick/Count))
board.cache_hierarchy.cc_l3cache.overallAvgMshrMissLatency::processor.cores2.core.data 61509.857143                       # average overall mshr miss latency ((Tick/Count))
board.cache_hierarchy.cc_l3cache.overallAvgMshrMissLatency::processor.cores3.core.inst        59607                       # average overall mshr miss latency ((Tick/Count))
board.cache_hierarchy.cc_l3cache.overallAvgMshrMissLatency::processor.cores3.core.data 52336.500000                       # average overall mshr miss latency ((Tick/Count))
board.cache_hierarchy.cc_l3cache.overallAvgMshrMissLatency::processor.cores4.core.inst        73260                       # average overall mshr miss latency ((Tick/Count))
board.cache_hierarchy.cc_l3cache.overallAvgMshrMissLatency::processor.cores4.core.data 50560.500000                       # average overall mshr miss latency ((Tick/Count))
board.cache_hierarchy.cc_l3cache.overallAvgMshrMissLatency::processor.cores5.core.inst        49950                       # average overall mshr miss latency ((Tick/Count))
board.cache_hierarchy.cc_l3cache.overallAvgMshrMissLatency::processor.cores5.core.data 48562.500000                       # average overall mshr miss latency ((Tick/Count))
board.cache_hierarchy.cc_l3cache.overallAvgMshrMissLatency::processor.cores6.core.data 53890.500000                       # average overall mshr miss latency ((Tick/Count))
board.cache_hierarchy.cc_l3cache.overallAvgMshrMissLatency::processor.cores7.core.inst 66433.500000                       # average overall mshr miss latency ((Tick/Count))
board.cache_hierarchy.cc_l3cache.overallAvgMshrMissLatency::processor.cores7.core.data 46786.500000                       # average overall mshr miss latency ((Tick/Count))
board.cache_hierarchy.cc_l3cache.overallAvgMshrMissLatency::total 61189.965817                       # average overall mshr miss latency ((Tick/Count))
board.cache_hierarchy.cc_l3cache.replacements            0                       # number of replacements (Count)
board.cache_hierarchy.cc_l3cache.HardPFReq.mshrMisses::cache_hierarchy.cc_l3cache.prefetcher           66                       # number of HardPFReq MSHR misses (Count)
board.cache_hierarchy.cc_l3cache.HardPFReq.mshrMisses::total           66                       # number of HardPFReq MSHR misses (Count)
board.cache_hierarchy.cc_l3cache.HardPFReq.mshrMissLatency::cache_hierarchy.cc_l3cache.prefetcher      4530735                       # number of HardPFReq MSHR miss ticks (Tick)
board.cache_hierarchy.cc_l3cache.HardPFReq.mshrMissLatency::total      4530735                       # number of HardPFReq MSHR miss ticks (Tick)
board.cache_hierarchy.cc_l3cache.HardPFReq.mshrMissRate::cache_hierarchy.cc_l3cache.prefetcher          inf                       # mshr miss rate for HardPFReq accesses (Ratio)
board.cache_hierarchy.cc_l3cache.HardPFReq.mshrMissRate::total          inf                       # mshr miss rate for HardPFReq accesses (Ratio)
board.cache_hierarchy.cc_l3cache.HardPFReq.avgMshrMissLatency::cache_hierarchy.cc_l3cache.prefetcher 68647.500000                       # average HardPFReq mshr miss latency ((Tick/Count))
board.cache_hierarchy.cc_l3cache.HardPFReq.avgMshrMissLatency::total 68647.500000                       # average HardPFReq mshr miss latency ((Tick/Count))
board.cache_hierarchy.cc_l3cache.ReadExReq.hits::processor.cores0.core.data            7                       # number of ReadExReq hits (Count)
board.cache_hierarchy.cc_l3cache.ReadExReq.hits::total            7                       # number of ReadExReq hits (Count)
board.cache_hierarchy.cc_l3cache.ReadExReq.misses::processor.cores0.core.data          289                       # number of ReadExReq misses (Count)
board.cache_hierarchy.cc_l3cache.ReadExReq.misses::processor.cores1.core.data            5                       # number of ReadExReq misses (Count)
board.cache_hierarchy.cc_l3cache.ReadExReq.misses::processor.cores2.core.data            5                       # number of ReadExReq misses (Count)
board.cache_hierarchy.cc_l3cache.ReadExReq.misses::processor.cores3.core.data            5                       # number of ReadExReq misses (Count)
board.cache_hierarchy.cc_l3cache.ReadExReq.misses::processor.cores4.core.data            5                       # number of ReadExReq misses (Count)
board.cache_hierarchy.cc_l3cache.ReadExReq.misses::processor.cores5.core.data            5                       # number of ReadExReq misses (Count)
board.cache_hierarchy.cc_l3cache.ReadExReq.misses::processor.cores6.core.data            5                       # number of ReadExReq misses (Count)
board.cache_hierarchy.cc_l3cache.ReadExReq.misses::processor.cores7.core.data            5                       # number of ReadExReq misses (Count)
board.cache_hierarchy.cc_l3cache.ReadExReq.misses::total          324                       # number of ReadExReq misses (Count)
board.cache_hierarchy.cc_l3cache.ReadExReq.missLatency::processor.cores0.core.data     17125857                       # number of ReadExReq miss ticks (Tick)
board.cache_hierarchy.cc_l3cache.ReadExReq.missLatency::processor.cores1.core.data       280719                       # number of ReadExReq miss ticks (Tick)
board.cache_hierarchy.cc_l3cache.ReadExReq.missLatency::processor.cores2.core.data       313020                       # number of ReadExReq miss ticks (Tick)
board.cache_hierarchy.cc_l3cache.ReadExReq.missLatency::processor.cores3.core.data       269730                       # number of ReadExReq miss ticks (Tick)
board.cache_hierarchy.cc_l3cache.ReadExReq.missLatency::processor.cores4.core.data       259074                       # number of ReadExReq miss ticks (Tick)
board.cache_hierarchy.cc_l3cache.ReadExReq.missLatency::processor.cores5.core.data       247086                       # number of ReadExReq miss ticks (Tick)
board.cache_hierarchy.cc_l3cache.ReadExReq.missLatency::processor.cores6.core.data       279054                       # number of ReadExReq miss ticks (Tick)
board.cache_hierarchy.cc_l3cache.ReadExReq.missLatency::processor.cores7.core.data       236430                       # number of ReadExReq miss ticks (Tick)
board.cache_hierarchy.cc_l3cache.ReadExReq.missLatency::total     19010970                       # number of ReadExReq miss ticks (Tick)
board.cache_hierarchy.cc_l3cache.ReadExReq.accesses::processor.cores0.core.data          296                       # number of ReadExReq accesses(hits+misses) (Count)
board.cache_hierarchy.cc_l3cache.ReadExReq.accesses::processor.cores1.core.data            5                       # number of ReadExReq accesses(hits+misses) (Count)
board.cache_hierarchy.cc_l3cache.ReadExReq.accesses::processor.cores2.core.data            5                       # number of ReadExReq accesses(hits+misses) (Count)
board.cache_hierarchy.cc_l3cache.ReadExReq.accesses::processor.cores3.core.data            5                       # number of ReadExReq accesses(hits+misses) (Count)
board.cache_hierarchy.cc_l3cache.ReadExReq.accesses::processor.cores4.core.data            5                       # number of ReadExReq accesses(hits+misses) (Count)
board.cache_hierarchy.cc_l3cache.ReadExReq.accesses::processor.cores5.core.data            5                       # number of ReadExReq accesses(hits+misses) (Count)
board.cache_hierarchy.cc_l3cache.ReadExReq.accesses::processor.cores6.core.data            5                       # number of ReadExReq accesses(hits+misses) (Count)
board.cache_hierarchy.cc_l3cache.ReadExReq.accesses::processor.cores7.core.data            5                       # number of ReadExReq accesses(hits+misses) (Count)
board.cache_hierarchy.cc_l3cache.ReadExReq.accesses::total          331                       # number of ReadExReq accesses(hits+misses) (Count)
board.cache_hierarchy.cc_l3cache.ReadExReq.missRate::processor.cores0.core.data     0.976351                       # miss rate for ReadExReq accesses (Ratio)
board.cache_hierarchy.cc_l3cache.ReadExReq.missRate::processor.cores1.core.data            1                       # miss rate for ReadExReq accesses (Ratio)
board.cache_hierarchy.cc_l3cache.ReadExReq.missRate::processor.cores2.core.data            1                       # miss rate for ReadExReq accesses (Ratio)
board.cache_hierarchy.cc_l3cache.ReadExReq.missRate::processor.cores3.core.data            1                       # miss rate for ReadExReq accesses (Ratio)
board.cache_hierarchy.cc_l3cache.ReadExReq.missRate::processor.cores4.core.data            1                       # miss rate for ReadExReq accesses (Ratio)
board.cache_hierarchy.cc_l3cache.ReadExReq.missRate::processor.cores5.core.data            1                       # miss rate for ReadExReq accesses (Ratio)
board.cache_hierarchy.cc_l3cache.ReadExReq.missRate::processor.cores6.core.data            1                       # miss rate for ReadExReq accesses (Ratio)
board.cache_hierarchy.cc_l3cache.ReadExReq.missRate::processor.cores7.core.data            1                       # miss rate for ReadExReq accesses (Ratio)
board.cache_hierarchy.cc_l3cache.ReadExReq.missRate::total     0.978852                       # miss rate for ReadExReq accesses (Ratio)
board.cache_hierarchy.cc_l3cache.ReadExReq.avgMissLatency::processor.cores0.core.data 59259.020761                       # average ReadExReq miss latency ((Tick/Count))
board.cache_hierarchy.cc_l3cache.ReadExReq.avgMissLatency::processor.cores1.core.data 56143.800000                       # average ReadExReq miss latency ((Tick/Count))
board.cache_hierarchy.cc_l3cache.ReadExReq.avgMissLatency::processor.cores2.core.data        62604                       # average ReadExReq miss latency ((Tick/Count))
board.cache_hierarchy.cc_l3cache.ReadExReq.avgMissLatency::processor.cores3.core.data        53946                       # average ReadExReq miss latency ((Tick/Count))
board.cache_hierarchy.cc_l3cache.ReadExReq.avgMissLatency::processor.cores4.core.data 51814.800000                       # average ReadExReq miss latency ((Tick/Count))
board.cache_hierarchy.cc_l3cache.ReadExReq.avgMissLatency::processor.cores5.core.data 49417.200000                       # average ReadExReq miss latency ((Tick/Count))
board.cache_hierarchy.cc_l3cache.ReadExReq.avgMissLatency::processor.cores6.core.data 55810.800000                       # average ReadExReq miss latency ((Tick/Count))
board.cache_hierarchy.cc_l3cache.ReadExReq.avgMissLatency::processor.cores7.core.data        47286                       # average ReadExReq miss latency ((Tick/Count))
board.cache_hierarchy.cc_l3cache.ReadExReq.avgMissLatency::total 58675.833333                       # average ReadExReq miss latency ((Tick/Count))
board.cache_hierarchy.cc_l3cache.ReadExReq.mshrMisses::processor.cores0.core.data          289                       # number of ReadExReq MSHR misses (Count)
board.cache_hierarchy.cc_l3cache.ReadExReq.mshrMisses::processor.cores1.core.data            5                       # number of ReadExReq MSHR misses (Count)
board.cache_hierarchy.cc_l3cache.ReadExReq.mshrMisses::processor.cores2.core.data            5                       # number of ReadExReq MSHR misses (Count)
board.cache_hierarchy.cc_l3cache.ReadExReq.mshrMisses::processor.cores3.core.data            5                       # number of ReadExReq MSHR misses (Count)
board.cache_hierarchy.cc_l3cache.ReadExReq.mshrMisses::processor.cores4.core.data            5                       # number of ReadExReq MSHR misses (Count)
board.cache_hierarchy.cc_l3cache.ReadExReq.mshrMisses::processor.cores5.core.data            5                       # number of ReadExReq MSHR misses (Count)
board.cache_hierarchy.cc_l3cache.ReadExReq.mshrMisses::processor.cores6.core.data            5                       # number of ReadExReq MSHR misses (Count)
board.cache_hierarchy.cc_l3cache.ReadExReq.mshrMisses::processor.cores7.core.data            5                       # number of ReadExReq MSHR misses (Count)
board.cache_hierarchy.cc_l3cache.ReadExReq.mshrMisses::total          324                       # number of ReadExReq MSHR misses (Count)
board.cache_hierarchy.cc_l3cache.ReadExReq.mshrMissLatency::processor.cores0.core.data     17029620                       # number of ReadExReq MSHR miss ticks (Tick)
board.cache_hierarchy.cc_l3cache.ReadExReq.mshrMissLatency::processor.cores1.core.data       279054                       # number of ReadExReq MSHR miss ticks (Tick)
board.cache_hierarchy.cc_l3cache.ReadExReq.mshrMissLatency::processor.cores2.core.data       311355                       # number of ReadExReq MSHR miss ticks (Tick)
board.cache_hierarchy.cc_l3cache.ReadExReq.mshrMissLatency::processor.cores3.core.data       268065                       # number of ReadExReq MSHR miss ticks (Tick)
board.cache_hierarchy.cc_l3cache.ReadExReq.mshrMissLatency::processor.cores4.core.data       257409                       # number of ReadExReq MSHR miss ticks (Tick)
board.cache_hierarchy.cc_l3cache.ReadExReq.mshrMissLatency::processor.cores5.core.data       245421                       # number of ReadExReq MSHR miss ticks (Tick)
board.cache_hierarchy.cc_l3cache.ReadExReq.mshrMissLatency::processor.cores6.core.data       277389                       # number of ReadExReq MSHR miss ticks (Tick)
board.cache_hierarchy.cc_l3cache.ReadExReq.mshrMissLatency::processor.cores7.core.data       234765                       # number of ReadExReq MSHR miss ticks (Tick)
board.cache_hierarchy.cc_l3cache.ReadExReq.mshrMissLatency::total     18903078                       # number of ReadExReq MSHR miss ticks (Tick)
board.cache_hierarchy.cc_l3cache.ReadExReq.mshrMissRate::processor.cores0.core.data     0.976351                       # mshr miss rate for ReadExReq accesses (Ratio)
board.cache_hierarchy.cc_l3cache.ReadExReq.mshrMissRate::processor.cores1.core.data            1                       # mshr miss rate for ReadExReq accesses (Ratio)
board.cache_hierarchy.cc_l3cache.ReadExReq.mshrMissRate::processor.cores2.core.data            1                       # mshr miss rate for ReadExReq accesses (Ratio)
board.cache_hierarchy.cc_l3cache.ReadExReq.mshrMissRate::processor.cores3.core.data            1                       # mshr miss rate for ReadExReq accesses (Ratio)
board.cache_hierarchy.cc_l3cache.ReadExReq.mshrMissRate::processor.cores4.core.data            1                       # mshr miss rate for ReadExReq accesses (Ratio)
board.cache_hierarchy.cc_l3cache.ReadExReq.mshrMissRate::processor.cores5.core.data            1                       # mshr miss rate for ReadExReq accesses (Ratio)
board.cache_hierarchy.cc_l3cache.ReadExReq.mshrMissRate::processor.cores6.core.data            1                       # mshr miss rate for ReadExReq accesses (Ratio)
board.cache_hierarchy.cc_l3cache.ReadExReq.mshrMissRate::processor.cores7.core.data            1                       # mshr miss rate for ReadExReq accesses (Ratio)
board.cache_hierarchy.cc_l3cache.ReadExReq.mshrMissRate::total     0.978852                       # mshr miss rate for ReadExReq accesses (Ratio)
board.cache_hierarchy.cc_l3cache.ReadExReq.avgMshrMissLatency::processor.cores0.core.data 58926.020761                       # average ReadExReq mshr miss latency ((Tick/Count))
board.cache_hierarchy.cc_l3cache.ReadExReq.avgMshrMissLatency::processor.cores1.core.data 55810.800000                       # average ReadExReq mshr miss latency ((Tick/Count))
board.cache_hierarchy.cc_l3cache.ReadExReq.avgMshrMissLatency::processor.cores2.core.data        62271                       # average ReadExReq mshr miss latency ((Tick/Count))
board.cache_hierarchy.cc_l3cache.ReadExReq.avgMshrMissLatency::processor.cores3.core.data        53613                       # average ReadExReq mshr miss latency ((Tick/Count))
board.cache_hierarchy.cc_l3cache.ReadExReq.avgMshrMissLatency::processor.cores4.core.data 51481.800000                       # average ReadExReq mshr miss latency ((Tick/Count))
board.cache_hierarchy.cc_l3cache.ReadExReq.avgMshrMissLatency::processor.cores5.core.data 49084.200000                       # average ReadExReq mshr miss latency ((Tick/Count))
board.cache_hierarchy.cc_l3cache.ReadExReq.avgMshrMissLatency::processor.cores6.core.data 55477.800000                       # average ReadExReq mshr miss latency ((Tick/Count))
board.cache_hierarchy.cc_l3cache.ReadExReq.avgMshrMissLatency::processor.cores7.core.data        46953                       # average ReadExReq mshr miss latency ((Tick/Count))
board.cache_hierarchy.cc_l3cache.ReadExReq.avgMshrMissLatency::total 58342.833333                       # average ReadExReq mshr miss latency ((Tick/Count))
board.cache_hierarchy.cc_l3cache.ReadSharedReq.hits::cache_hierarchy.l1dcaches0.prefetcher           11                       # number of ReadSharedReq hits (Count)
board.cache_hierarchy.cc_l3cache.ReadSharedReq.hits::cache_hierarchy.l2cache.prefetcher            9                       # number of ReadSharedReq hits (Count)
board.cache_hierarchy.cc_l3cache.ReadSharedReq.hits::processor.cores0.core.data            5                       # number of ReadSharedReq hits (Count)
board.cache_hierarchy.cc_l3cache.ReadSharedReq.hits::total           25                       # number of ReadSharedReq hits (Count)
board.cache_hierarchy.cc_l3cache.ReadSharedReq.misses::cache_hierarchy.l1dcaches0.prefetcher           69                       # number of ReadSharedReq misses (Count)
board.cache_hierarchy.cc_l3cache.ReadSharedReq.misses::cache_hierarchy.l1dcaches7.prefetcher            1                       # number of ReadSharedReq misses (Count)
board.cache_hierarchy.cc_l3cache.ReadSharedReq.misses::cache_hierarchy.l2cache.prefetcher          112                       # number of ReadSharedReq misses (Count)
board.cache_hierarchy.cc_l3cache.ReadSharedReq.misses::processor.cores0.core.inst          955                       # number of ReadSharedReq misses (Count)
board.cache_hierarchy.cc_l3cache.ReadSharedReq.misses::processor.cores0.core.data          175                       # number of ReadSharedReq misses (Count)
board.cache_hierarchy.cc_l3cache.ReadSharedReq.misses::processor.cores1.core.inst           19                       # number of ReadSharedReq misses (Count)
board.cache_hierarchy.cc_l3cache.ReadSharedReq.misses::processor.cores1.core.data            1                       # number of ReadSharedReq misses (Count)
board.cache_hierarchy.cc_l3cache.ReadSharedReq.misses::processor.cores2.core.inst            5                       # number of ReadSharedReq misses (Count)
board.cache_hierarchy.cc_l3cache.ReadSharedReq.misses::processor.cores2.core.data            2                       # number of ReadSharedReq misses (Count)
board.cache_hierarchy.cc_l3cache.ReadSharedReq.misses::processor.cores3.core.inst            2                       # number of ReadSharedReq misses (Count)
board.cache_hierarchy.cc_l3cache.ReadSharedReq.misses::processor.cores3.core.data            1                       # number of ReadSharedReq misses (Count)
board.cache_hierarchy.cc_l3cache.ReadSharedReq.misses::processor.cores4.core.inst            1                       # number of ReadSharedReq misses (Count)
board.cache_hierarchy.cc_l3cache.ReadSharedReq.misses::processor.cores4.core.data            1                       # number of ReadSharedReq misses (Count)
board.cache_hierarchy.cc_l3cache.ReadSharedReq.misses::processor.cores5.core.inst            1                       # number of ReadSharedReq misses (Count)
board.cache_hierarchy.cc_l3cache.ReadSharedReq.misses::processor.cores5.core.data            1                       # number of ReadSharedReq misses (Count)
board.cache_hierarchy.cc_l3cache.ReadSharedReq.misses::processor.cores6.core.data            1                       # number of ReadSharedReq misses (Count)
board.cache_hierarchy.cc_l3cache.ReadSharedReq.misses::processor.cores7.core.inst            2                       # number of ReadSharedReq misses (Count)
board.cache_hierarchy.cc_l3cache.ReadSharedReq.misses::processor.cores7.core.data            1                       # number of ReadSharedReq misses (Count)
board.cache_hierarchy.cc_l3cache.ReadSharedReq.misses::total         1350                       # number of ReadSharedReq misses (Count)
board.cache_hierarchy.cc_l3cache.ReadSharedReq.missLatency::cache_hierarchy.l1dcaches0.prefetcher      6193141                       # number of ReadSharedReq miss ticks (Tick)
board.cache_hierarchy.cc_l3cache.ReadSharedReq.missLatency::cache_hierarchy.l1dcaches7.prefetcher        73593                       # number of ReadSharedReq miss ticks (Tick)
board.cache_hierarchy.cc_l3cache.ReadSharedReq.missLatency::cache_hierarchy.l2cache.prefetcher      8424200                       # number of ReadSharedReq miss ticks (Tick)
board.cache_hierarchy.cc_l3cache.ReadSharedReq.missLatency::processor.cores0.core.inst     54286326                       # number of ReadSharedReq miss ticks (Tick)
board.cache_hierarchy.cc_l3cache.ReadSharedReq.missLatency::processor.cores0.core.data     12020634                       # number of ReadSharedReq miss ticks (Tick)
board.cache_hierarchy.cc_l3cache.ReadSharedReq.missLatency::processor.cores1.core.inst      1110888                       # number of ReadSharedReq miss ticks (Tick)
[...]
board.processor.cores7.core.cc_buffer.execute_buffer_occupancy_histogram::149            0      0.00%    100.00% # Distribution of decode buffer occupancy (Unspecified)
board.processor.cores7.core.cc_buffer.execute_buffer_occupancy_histogram::150            0      0.00%    100.00% # Distribution of decode buffer occupancy (Unspecified)
board.processor.cores7.core.cc_buffer.execute_buffer_occupancy_histogram::151            0      0.00%    100.00% # Distribution of decode buffer occupancy (Unspecified)
board.processor.cores7.core.cc_buffer.execute_buffer_occupancy_histogram::152            0      0.00%    100.00% # Distribution of decode buffer occupancy (Unspecified)
board.processor.cores7.core.cc_buffer.execute_buffer_occupancy_histogram::153            0      0.00%    100.00% # Distribution of decode buffer occupancy (Unspecified)
board.processor.cores7.core.cc_buffer.execute_buffer_occupancy_histogram::154            0      0.00%    100.00% # Distribution of decode buffer occupancy (Unspecified)
board.processor.cores7.core.cc_buffer.execute_buffer_occupancy_histogram::155            0      0.00%    100.00% # Distribution of decode buffer occupancy (Unspecified)
board.processor.cores7.core.cc_buffer.execute_buffer_occupancy_histogram::156            0      0.00%    100.00% # Distribution of decode buffer occupancy (Unspecified)
board.processor.cores7.core.cc_buffer.execute_buffer_occupancy_histogram::157            0      0.00%    100.00% # Distribution of decode buffer occupancy (Unspecified)
board.processor.cores7.core.cc_buffer.execute_buffer_occupancy_histogram::158            0      0.00%    100.00% # Distribution of decode buffer occupancy (Unspecified)
board.processor.cores7.core.cc_buffer.execute_buffer_occupancy_histogram::159            0      0.00%    100.00% # Distribution of decode buffer occupancy (Unspecified)
board.processor.cores7.core.cc_buffer.execute_buffer_occupancy_histogram::160            0      0.00%    100.00% # Distribution of decode buffer occupancy (Unspecified)
board.processor.cores7.core.cc_buffer.execute_buffer_occupancy_histogram::161            0      0.00%    100.00% # Distribution of decode buffer occupancy (Unspecified)
board.processor.cores7.core.cc_buffer.execute_buffer_occupancy_histogram::162            0      0.00%    100.00% # Distribution of decode buffer occupancy (Unspecified)
board.processor.cores7.core.cc_buffer.execute_buffer_occupancy_histogram::163            0      0.00%    100.00% # Distribution of decode buffer occupancy (Unspecified)
board.processor.cores7.core.cc_buffer.execute_buffer_occupancy_histogram::164            0      0.00%    100.00% # Distribution of decode buffer occupancy (Unspecified)
board.processor.cores7.core.cc_buffer.execute_buffer_occupancy_histogram::165            0      0.00%    100.00% # Distribution of decode buffer occupancy (Unspecified)
board.processor.cores7.core.cc_buffer.execute_buffer_occupancy_histogram::166            0      0.00%    100.00% # Distribution of decode buffer occupancy (Unspecified)
board.processor.cores7.core.cc_buffer.execute_buffer_occupancy_histogram::167            0      0.00%    100.00% # Distribution of decode buffer occupancy (Unspecified)
board.processor.cores7.core.cc_buffer.execute_buffer_occupancy_histogram::168            0      0.00%    100.00% # Distribution of decode buffer occupancy (Unspecified)
board.processor.cores7.core.cc_buffer.execute_buffer_occupancy_histogram::169            0      0.00%    100.00% # Distribution of decode buffer occupancy (Unspecified)
board.processor.cores7.core.cc_buffer.execute_buffer_occupancy_histogram::170            0      0.00%    100.00% # Distribution of decode buffer occupancy (Unspecified)
board.processor.cores7.core.cc_buffer.execute_buffer_occupancy_histogram::171            0      0.00%    100.00% # Distribution of decode buffer occupancy (Unspecified)
board.processor.cores7.core.cc_buffer.execute_buffer_occupancy_histogram::172            0      0.00%    100.00% # Distribution of decode buffer occupancy (Unspecified)
board.processor.cores7.core.cc_buffer.execute_buffer_occupancy_histogram::173            0      0.00%    100.00% # Distribution of decode buffer occupancy (Unspecified)
board.processor.cores7.core.cc_buffer.execute_buffer_occupancy_histogram::174            0      0.00%    100.00% # Distribution of decode buffer occupancy (Unspecified)
board.processor.cores7.core.cc_buffer.execute_buffer_occupancy_histogram::175            0      0.00%    100.00% # Distribution of decode buffer occupancy (Unspecified)
board.processor.cores7.core.cc_buffer.execute_buffer_occupancy_histogram::176            0      0.00%    100.00% # Distribution of decode buffer occupancy (Unspecified)
board.processor.cores7.core.cc_buffer.execute_buffer_occupancy_histogram::177            0      0.00%    100.00% # Distribution of decode buffer occupancy (Unspecified)
board.processor.cores7.core.cc_buffer.execute_buffer_occupancy_histogram::178            0      0.00%    100.00% # Distribution of decode buffer occupancy (Unspecified)
board.processor.cores7.core.cc_buffer.execute_buffer_occupancy_histogram::179            0      0.00%    100.00% # Distribution of decode buffer occupancy (Unspecified)
board.processor.cores7.core.cc_buffer.execute_buffer_occupancy_histogram::180            0      0.00%    100.00% # Distribution of decode buffer occupancy (Unspecified)
board.processor.cores7.core.cc_buffer.execute_buffer_occupancy_histogram::181            0      0.00%    100.00% # Distribution of decode buffer occupancy (Unspecified)
board.processor.cores7.core.cc_buffer.execute_buffer_occupancy_histogram::182            0      0.00%    100.00% # Distribution of decode buffer occupancy (Unspecified)
board.processor.cores7.core.cc_buffer.execute_buffer_occupancy_histogram::183            0      0.00%    100.00% # Distribution of decode buffer occupancy (Unspecified)
board.processor.cores7.core.cc_buffer.execute_buffer_occupancy_histogram::184            0      0.00%    100.00% # Distribution of decode buffer occupancy (Unspecified)
board.processor.cores7.core.cc_buffer.execute_buffer_occupancy_histogram::185            0      0.00%    100.00% # Distribution of decode buffer occupancy (Unspecified)
board.processor.cores7.core.cc_buffer.execute_buffer_occupancy_histogram::186            0      0.00%    100.00% # Distribution of decode buffer occupancy (Unspecified)
board.processor.cores7.core.cc_buffer.execute_buffer_occupancy_histogram::187            0      0.00%    100.00% # Distribution of decode buffer occupancy (Unspecified)
board.processor.cores7.core.cc_buffer.execute_buffer_occupancy_histogram::188            0      0.00%    100.00% # Distribution of decode buffer occupancy (Unspecified)
board.processor.cores7.core.cc_buffer.execute_buffer_occupancy_histogram::189            0      0.00%    100.00% # Distribution of decode buffer occupancy (Unspecified)
board.processor.cores7.core.cc_buffer.execute_buffer_occupancy_histogram::190            0      0.00%    100.00% # Distribution of decode buffer occupancy (Unspecified)
board.processor.cores7.core.cc_buffer.execute_buffer_occupancy_histogram::191            0      0.00%    100.00% # Distribution of decode buffer occupancy (Unspecified)
board.processor.cores7.core.cc_buffer.execute_buffer_occupancy_histogram::192            0      0.00%    100.00% # Distribution of decode buffer occupancy (Unspecified)
board.processor.cores7.core.cc_buffer.execute_buffer_occupancy_histogram::193            0      0.00%    100.00% # Distribution of decode buffer occupancy (Unspecified)
board.processor.cores7.core.cc_buffer.execute_buffer_occupancy_histogram::194            0      0.00%    100.00% # Distribution of decode buffer occupancy (Unspecified)
board.processor.cores7.core.cc_buffer.execute_buffer_occupancy_histogram::195            0      0.00%    100.00% # Distribution of decode buffer occupancy (Unspecified)
board.processor.cores7.core.cc_buffer.execute_buffer_occupancy_histogram::196            0      0.00%    100.00% # Distribution of decode buffer occupancy (Unspecified)
board.processor.cores7.core.cc_buffer.execute_buffer_occupancy_histogram::197            0      0.00%    100.00% # Distribution of decode buffer occupancy (Unspecified)
board.processor.cores7.core.cc_buffer.execute_buffer_occupancy_histogram::198            0      0.00%    100.00% # Distribution of decode buffer occupancy (Unspecified)
board.processor.cores7.core.cc_buffer.execute_buffer_occupancy_histogram::199            0      0.00%    100.00% # Distribution of decode buffer occupancy (Unspecified)
board.processor.cores7.core.cc_buffer.execute_buffer_occupancy_histogram::200            0      0.00%    100.00% # Distribution of decode buffer occupancy (Unspecified)
board.processor.cores7.core.cc_buffer.execute_buffer_occupancy_histogram::201            0      0.00%    100.00% # Distribution of decode buffer occupancy (Unspecified)
board.processor.cores7.core.cc_buffer.execute_buffer_occupancy_histogram::202            0      0.00%    100.00% # Distribution of decode buffer occupancy (Unspecified)
board.processor.cores7.core.cc_buffer.execute_buffer_occupancy_histogram::203            0      0.00%    100.00% # Distribution of decode buffer occupancy (Unspecified)
board.processor.cores7.core.cc_buffer.execute_buffer_occupancy_histogram::204            0      0.00%    100.00% # Distribution of decode buffer occupancy (Unspecified)
board.processor.cores7.core.cc_buffer.execute_buffer_occupancy_histogram::205            0      0.00%    100.00% # Distribution of decode buffer occupancy (Unspecified)
board.processor.cores7.core.cc_buffer.execute_buffer_occupancy_histogram::206            0      0.00%    100.00% # Distribution of decode buffer occupancy (Unspecified)
board.processor.cores7.core.cc_buffer.execute_buffer_occupancy_histogram::207            0      0.00%    100.00% # Distribution of decode buffer occupancy (Unspecified)
board.processor.cores7.core.cc_buffer.execute_buffer_occupancy_histogram::208            0      0.00%    100.00% # Distribution of decode buffer occupancy (Unspecified)
board.processor.cores7.core.cc_buffer.execute_buffer_occupancy_histogram::209            0      0.00%    100.00% # Distribution of decode buffer occupancy (Unspecified)
board.processor.cores7.core.cc_buffer.execute_buffer_occupancy_histogram::210            0      0.00%    100.00% # Distribution of decode buffer occupancy (Unspecified)
board.processor.cores7.core.cc_buffer.execute_buffer_occupancy_histogram::211            0      0.00%    100.00% # Distribution of decode buffer occupancy (Unspecified)
board.processor.cores7.core.cc_buffer.execute_buffer_occupancy_histogram::212            0      0.00%    100.00% # Distribution of decode buffer occupancy (Unspecified)
board.processor.cores7.core.cc_buffer.execute_buffer_occupancy_histogram::213            0      0.00%    100.00% # Distribution of decode buffer occupancy (Unspecified)
board.processor.cores7.core.cc_buffer.execute_buffer_occupancy_histogram::214            0      0.00%    100.00% # Distribution of decode buffer occupancy (Unspecified)
board.processor.cores7.core.cc_buffer.execute_buffer_occupancy_histogram::215            0      0.00%    100.00% # Distribution of decode buffer occupancy (Unspecified)
board.processor.cores7.core.cc_buffer.execute_buffer_occupancy_histogram::216            0      0.00%    100.00% # Distribution of decode buffer occupancy (Unspecified)
board.processor.cores7.core.cc_buffer.execute_buffer_occupancy_histogram::217            0      0.00%    100.00% # Distribution of decode buffer occupancy (Unspecified)
board.processor.cores7.core.cc_buffer.execute_buffer_occupancy_histogram::218            0      0.00%    100.00% # Distribution of decode buffer occupancy (Unspecified)
board.processor.cores7.core.cc_buffer.execute_buffer_occupancy_histogram::219            0      0.00%    100.00% # Distribution of decode buffer occupancy (Unspecified)
board.processor.cores7.core.cc_buffer.execute_buffer_occupancy_histogram::220            0      0.00%    100.00% # Distribution of decode buffer occupancy (Unspecified)
board.processor.cores7.core.cc_buffer.execute_buffer_occupancy_histogram::221            0      0.00%    100.00% # Distribution of decode buffer occupancy (Unspecified)
board.processor.cores7.core.cc_buffer.execute_buffer_occupancy_histogram::222            0      0.00%    100.00% # Distribution of decode buffer occupancy (Unspecified)
board.processor.cores7.core.cc_buffer.execute_buffer_occupancy_histogram::223            0      0.00%    100.00% # Distribution of decode buffer occupancy (Unspecified)
board.processor.cores7.core.cc_buffer.execute_buffer_occupancy_histogram::224            0      0.00%    100.00% # Distribution of decode buffer occupancy (Unspecified)
board.processor.cores7.core.cc_buffer.execute_buffer_occupancy_histogram::225            0      0.00%    100.00% # Distribution of decode buffer occupancy (Unspecified)
board.processor.cores7.core.cc_buffer.execute_buffer_occupancy_histogram::226            0      0.00%    100.00% # Distribution of decode buffer occupancy (Unspecified)
board.processor.cores7.core.cc_buffer.execute_buffer_occupancy_histogram::227            0      0.00%    100.00% # Distribution of decode buffer occupancy (Unspecified)
board.processor.cores7.core.cc_buffer.execute_buffer_occupancy_histogram::228            0      0.00%    100.00% # Distribution of decode buffer occupancy (Unspecified)
board.processor.cores7.core.cc_buffer.execute_buffer_occupancy_histogram::229            0      0.00%    100.00% # Distribution of decode buffer occupancy (Unspecified)
board.processor.cores7.core.cc_buffer.execute_buffer_occupancy_histogram::230            0      0.00%    100.00% # Distribution of decode buffer occupancy (Unspecified)
board.processor.cores7.core.cc_buffer.execute_buffer_occupancy_histogram::231            0      0.00%    100.00% # Distribution of decode buffer occupancy (Unspecified)
board.processor.cores7.core.cc_buffer.execute_buffer_occupancy_histogram::232            0      0.00%    100.00% # Distribution of decode buffer occupancy (Unspecified)
board.processor.cores7.core.cc_buffer.execute_buffer_occupancy_histogram::233            0      0.00%    100.00% # Distribution of decode buffer occupancy (Unspecified)
board.processor.cores7.core.cc_buffer.execute_buffer_occupancy_histogram::234            0      0.00%    100.00% # Distribution of decode buffer occupancy (Unspecified)
board.processor.cores7.core.cc_buffer.execute_buffer_occupancy_histogram::235            0      0.00%    100.00% # Distribution of decode buffer occupancy (Unspecified)
board.processor.cores7.core.cc_buffer.execute_buffer_occupancy_histogram::236            0      0.00%    100.00% # Distribution of decode buffer occupancy (Unspecified)
board.processor.cores7.core.cc_buffer.execute_buffer_occupancy_histogram::237            0      0.00%    100.00% # Distribution of decode buffer occupancy (Unspecified)
board.processor.cores7.core.cc_buffer.execute_buffer_occupancy_histogram::238            0      0.00%    100.00% # Distribution of decode buffer occupancy (Unspecified)
board.processor.cores7.core.cc_buffer.execute_buffer_occupancy_histogram::239            0      0.00%    100.00% # Distribution of decode buffer occupancy (Unspecified)
board.processor.cores7.core.cc_buffer.execute_buffer_occupancy_histogram::240            0      0.00%    100.00% # Distribution of decode buffer occupancy (Unspecified)
board.processor.cores7.core.cc_buffer.execute_buffer_occupancy_histogram::241            0      0.00%    100.00% # Distribution of decode buffer occupancy (Unspecified)
board.processor.cores7.core.cc_buffer.execute_buffer_occupancy_histogram::242            0      0.00%    100.00% # Distribution of decode buffer occupancy (Unspecified)
board.processor.cores7.core.cc_buffer.execute_buffer_occupancy_histogram::243            0      0.00%    100.00% # Distribution of decode buffer occupancy (Unspecified)
board.processor.cores7.core.cc_buffer.execute_buffer_occupancy_histogram::244            0      0.00%    100.00% # Distribution of decode buffer occupancy (Unspecified)
board.processor.cores7.core.cc_buffer.execute_buffer_occupancy_histogram::245            0      0.00%    100.00% # Distribution of decode buffer occupancy (Unspecified)
board.processor.cores7.core.cc_buffer.execute_buffer_occupancy_histogram::246            0      0.00%    100.00% # Distribution of decode buffer occupancy (Unspecified)
board.processor.cores7.core.cc_buffer.execute_buffer_occupancy_histogram::247            0      0.00%    100.00% # Distribution of decode buffer occupancy (Unspecified)
board.processor.cores7.core.cc_buffer.execute_buffer_occupancy_histogram::248            0      0.00%    100.00% # Distribution of decode buffer occupancy (Unspecified)
board.processor.cores7.core.cc_buffer.execute_buffer_occupancy_histogram::249            0      0.00%    100.00% # Distribution of decode buffer occupancy (Unspecified)
board.processor.cores7.core.cc_buffer.execute_buffer_occupancy_histogram::250            0      0.00%    100.00% # Distribution of decode buffer occupancy (Unspecified)
board.processor.cores7.core.cc_buffer.execute_buffer_occupancy_histogram::251            0      0.00%    100.00% # Distribution of decode buffer occupancy (Unspecified)
board.processor.cores7.core.cc_buffer.execute_buffer_occupancy_histogram::252            0      0.00%    100.00% # Distribution of decode buffer occupancy (Unspecified)
board.processor.cores7.core.cc_buffer.execute_buffer_occupancy_histogram::253            0      0.00%    100.00% # Distribution of decode buffer occupancy (Unspecified)
board.processor.cores7.core.cc_buffer.execute_buffer_occupancy_histogram::254            0      0.00%    100.00% # Distribution of decode buffer occupancy (Unspecified)
board.processor.cores7.core.cc_buffer.execute_buffer_occupancy_histogram::255            0      0.00%    100.00% # Distribution of decode buffer occupancy (Unspecified)
board.processor.cores7.core.cc_buffer.execute_buffer_occupancy_histogram::256            0      0.00%    100.00% # Distribution of decode buffer occupancy (Unspecified)
board.processor.cores7.core.cc_buffer.execute_buffer_occupancy_histogram::overflows            0      0.00%    100.00% # Distribution of decode buffer occupancy (Unspecified)
board.processor.cores7.core.cc_buffer.execute_buffer_occupancy_histogram::min_value            0                       # Distribution of decode buffer occupancy (Unspecified)
board.processor.cores7.core.cc_buffer.execute_buffer_occupancy_histogram::max_value            0                       # Distribution of decode buffer occupancy (Unspecified)
board.processor.cores7.core.cc_buffer.execute_buffer_occupancy_histogram::total        49799                       # Distribution of decode buffer occupancy (Unspecified)
board.processor.cores7.core.cc_buffer.execute_old_inst_not_finished            0                       # Number of times execute buffer paused due to oldest insts not being finished executing (Unspecified)
board.processor.cores7.core.cc_buffer.num_fault_insts            0                       # Number of fault insts executed (Unspecified)
board.processor.cores7.core.cc_buffer.num_unknown_insts            0                       # Number of unknown insts executed (Unspecified)
board.processor.cores7.core.cc_buffer.ooo_stall_signals            0                       # Number of cycles stalled due to buffer (Unspecified)
board.processor.cores7.core.cc_buffer.regfile_bandwidth_reached            0                       # Number of times execute buffer paused due to bandwidth reached (Unspecified)
board.processor.cores7.core.cc_buffer.regfile_insts_processed            0                       # Number of insts regfile has processes (Unspecified)

---------- End Simulation Statistics   ----------
