
---------- Begin Simulation Statistics ----------
simSeconds                                   0.000021                       # Number of seconds simulated (Second)
simTicks                                     21188457                       # Number of ticks simulated (Tick)
finalTick                                    21188457                       # Number of ticks from beginning of simulation (restored from checkpoints and never reset) (Tick)
simFreq                                  1000000000000                       # The number of ticks per simulated second ((Tick/Second))
hostSeconds                                      0.41                       # Real time elapsed on the host (Second)
hostTickRate                                 51240743                       # The number of ticks simulated per host second (ticks/s) ((Tick/Second))
hostMemory                                    8799380                       # Number of bytes of host memory used (Byte)
simInsts                                         6555                       # Number of instructions simulated (Count)
simOps                                          12992                       # Number of ops (including micro ops) simulated (Count)
hostInstRate                                    15843                       # Simulator instruction rate (inst/s) ((Count/Second))
hostOpRate                                      31400                       # Simulator op (including micro ops) rate (op/s) ((Count/Second))
board.cache_hierarchy.cc_l3cache.demandHits::cache_hierarchy.l1dcaches0.prefetcher            8                       # number of demand (read+write) hits (Count)
board.cache_hierarchy.cc_l3cache.demandHits::processor.cores0.core.data            3                       # number of demand (read+write) hits (Count)
board.cache_hierarchy.cc_l3cache.demandHits::processor.cores0.core.cc_buffer         2313                       # number of demand (read+write) hits (Count)
board.cache_hierarchy.cc_l3cache.demandHits::total         2324                       # number of demand (read+write) hits (Count)
board.cache_hierarchy.cc_l3cache.overallHits::cache_hierarchy.l1dcaches0.prefetcher            8                       # number of overall hits (Count)
board.cache_hierarchy.cc_l3cache.overallHits::processor.cores0.core.data            3                       # number of overall hits (Count)
board.cache_hierarchy.cc_l3cache.overallHits::processor.cores0.core.cc_buffer         2313                       # number of overall hits (Count)
board.cache_hierarchy.cc_l3cache.overallHits::total         2324                       # number of overall hits (Count)
board.cache_hierarchy.cc_l3cache.demandMisses::cache_hierarchy.l1dcaches0.prefetcher           26                       # number of demand (read+write) misses (Count)
board.cache_hierarchy.cc_l3cache.demandMisses::cache_hierarchy.l2cache.prefetcher           30                       # number of demand (read+write) misses (Count)
board.cache_hierarchy.cc_l3cache.demandMisses::processor.cores0.core.inst          419                       # number of demand (read+write) misses (Count)
board.cache_hierarchy.cc_l3cache.demandMisses::processor.cores0.core.data          140                       # number of demand (read+write) misses (Count)
board.cache_hierarchy.cc_l3cache.demandMisses::processor.cores0.core.cc_buffer          305                       # number of demand (read+write) misses (Count)
board.cache_hierarchy.cc_l3cache.demandMisses::total          920                       # number of demand (read+write) misses (Count)
board.cache_hierarchy.cc_l3cache.overallMisses::cache_hierarchy.l1dcaches0.prefetcher           26                       # number of overall misses (Count)
board.cache_hierarchy.cc_l3cache.overallMisses::cache_hierarchy.l2cache.prefetcher           30                       # number of overall misses (Count)
board.cache_hierarchy.cc_l3cache.overallMisses::processor.cores0.core.inst          419                       # number of overall misses (Count)
board.cache_hierarchy.cc_l3cache.overallMisses::processor.cores0.core.data          140                       # number of overall misses (Count)
board.cache_hierarchy.cc_l3cache.overallMisses::processor.cores0.core.cc_buffer          305                       # number of overall misses (Count)
board.cache_hierarchy.cc_l3cache.overallMisses::total          920                       # number of overall misses (Count)
board.cache_hierarchy.cc_l3cache.demandMissLatency::cache_hierarchy.l1dcaches0.prefetcher      2285379                       # number of demand (read+write) miss ticks (Tick)
board.cache_hierarchy.cc_l3cache.demandMissLatency::cache_hierarchy.l2cache.prefetcher      2180151                       # number of demand (read+write) miss ticks (Tick)
board.cache_hierarchy.cc_l3cache.demandMissLatency::processor.cores0.core.inst     23144832                       # number of demand (read+write) miss ticks (Tick)
board.cache_hierarchy.cc_l3cache.demandMissLatency::processor.cores0.core.data      9311679                       # number of demand (read+write) miss ticks (Tick)
board.cache_hierarchy.cc_l3cache.demandMissLatency::total     36922041                       # number of demand (read+write) miss ticks (Tick)
board.cache_hierarchy.cc_l3cache.overallMissLatency::cache_hierarchy.l1dcaches0.prefetcher      2285379                       # number of overall miss ticks (Tick)
board.cache_hierarchy.cc_l3cache.overallMissLatency::cache_hierarchy.l2cache.prefetcher      2180151                       # number of overall miss ticks (Tick)
board.cache_hierarchy.cc_l3cache.overallMissLatency::processor.cores0.core.inst     23144832                       # number of overall miss ticks (Tick)
board.cache_hierarchy.cc_l3cache.overallMissLatency::processor.cores0.core.data      9311679                       # number of overall miss ticks (Tick)
board.cache_hierarchy.cc_l3cache.overallMissLatency::total     36922041                       # number of overall miss ticks (Tick)
board.cache_hierarchy.cc_l3cache.demandAccesses::cache_hierarchy.l1dcaches0.prefetcher           34                       # number of demand (read+write) accesses (Count)
board.cache_hierarchy.cc_l3cache.demandAccesses::cache_hierarchy.l2cache.prefetcher           30                       # number of demand (read+write) accesses (Count)
board.cache_hierarchy.cc_l3cache.demandAccesses::processor.cores0.core.inst          419                       # number of demand (read+write) accesses (Count)
board.cache_hierarchy.cc_l3cache.demandAccesses::processor.cores0.core.data          143                       # number of demand (read+write) accesses (Count)
board.cache_hierarchy.cc_l3cache.demandAccesses::processor.cores0.core.cc_buffer         2618                       # number of demand (read+write) accesses (Count)
board.cache_hierarchy.cc_l3cache.demandAccesses::total         3244                       # number of demand (read+write) accesses (Count)
board.cache_hierarchy.cc_l3cache.overallAccesses::cache_hierarchy.l1dcaches0.prefetcher           34                       # number of overall (read+write) accesses (Count)
board.cache_hierarchy.cc_l3cache.overallAccesses::cache_hierarchy.l2cache.prefetcher           30                       # number of overall (read+write) accesses (Count)
board.cache_hierarchy.cc_l3cache.overallAccesses::processor.cores0.core.inst          419                       # number of overall (read+write) accesses (Count)
board.cache_hierarchy.cc_l3cache.overallAccesses::processor.cores0.core.data          143                       # number of overall (read+write) accesses (Count)
board.cache_hierarchy.cc_l3cache.overallAccesses::processor.cores0.core.cc_buffer         2618                       # number of overall (read+write) accesses (Count)
board.cache_hierarchy.cc_l3cache.overallAccesses::total         3244                       # number of overall (read+write) accesses (Count)
board.cache_hierarchy.cc_l3cache.demandMissRate::cache_hierarchy.l1dcaches0.prefetcher     0.764706                       # miss rate for demand accesses (Ratio)
board.cache_hierarchy.cc_l3cache.demandMissRate::cache_hierarchy.l2cache.prefetcher            1                       # miss rate for demand accesses (Ratio)
board.cache_hierarchy.cc_l3cache.demandMissRate::processor.cores0.core.inst            1                       # miss rate for demand accesses (Ratio)
board.cache_hierarchy.cc_l3cache.demandMissRate::processor.cores0.core.data     0.979021                       # miss rate for demand accesses (Ratio)
board.cache_hierarchy.cc_l3cache.demandMissRate::processor.cores0.core.cc_buffer     0.116501                       # miss rate for demand accesses (Ratio)
board.cache_hierarchy.cc_l3cache.demandMissRate::total     0.283600                       # miss rate for demand accesses (Ratio)
board.cache_hierarchy.cc_l3cache.overallMissRate::cache_hierarchy.l1dcaches0.prefetcher     0.764706                       # miss rate for overall accesses (Ratio)
board.cache_hierarchy.cc_l3cache.overallMissRate::cache_hierarchy.l2cache.prefetcher            1                       # miss rate for overall accesses (Ratio)
board.cache_hierarchy.cc_l3cache.overallMissRate::processor.cores0.core.inst            1                       # miss rate for overall accesses (Ratio)
board.cache_hierarchy.cc_l3cache.overallMissRate::processor.cores0.core.data     0.979021                       # miss rate for overall accesses (Ratio)
board.cache_hierarchy.cc_l3cache.overallMissRate::processor.cores0.core.cc_buffer     0.116501                       # miss rate for overall accesses (Ratio)
board.cache_hierarchy.cc_l3cache.overallMissRate::total     0.283600                       # miss rate for overall accesses (Ratio)
board.cache_hierarchy.cc_l3cache.demandAvgMissLatency::cache_hierarchy.l1dcaches0.prefetcher 87899.192308                       # average overall miss latency in ticks ((Tick/Count))
board.cache_hierarchy.cc_l3cache.demandAvgMissLatency::cache_hierarchy.l2cache.prefetcher 72671.700000                       # average overall miss latency in ticks ((Tick/Count))
board.cache_hierarchy.cc_l3cache.demandAvgMissLatency::processor.cores0.core.inst 55238.262530                       # average overall miss latency in ticks ((Tick/Count))
board.cache_hierarchy.cc_l3cache.demandAvgMissLatency::processor.cores0.core.data 66511.992857                       # average overall miss latency in ticks ((Tick/Count))
board.cache_hierarchy.cc_l3cache.demandAvgMissLatency::total 40132.653261                       # average overall miss latency in ticks ((Tick/Count))
board.cache_hierarchy.cc_l3cache.overallAvgMissLatency::cache_hierarchy.l1dcaches0.prefetcher 87899.192308                       # average overall miss latency ((Tick/Count))
board.cache_hierarchy.cc_l3cache.overallAvgMissLatency::cache_hierarchy.l2cache.prefetcher 72671.700000                       # average overall miss latency ((Tick/Count))
board.cache_hierarchy.cc_l3cache.overallAvgMissLatency::processor.cores0.core.inst 55238.262530                       # average overall miss latency ((Tick/Count))
board.cache_hierarchy.cc_l3cache.overallAvgMissLatency::processor.cores0.core.data 66511.992857                       # average overall miss latency ((Tick/Count))
board.cache_hierarchy.cc_l3cache.overallAvgMissLatency::total 40132.653261                       # average overall miss latency ((Tick/Count))
board.cache_hierarchy.cc_l3cache.blockedCycles::no_mshrs            0                       # number of cycles access was blocked (Cycle)
board.cache_hierarchy.cc_l3cache.blockedCycles::no_targets            0                       # number of cycles access was blocked (Cycle)
board.cache_hierarchy.cc_l3cache.blockedCauses::no_mshrs            0                       # number of times access was blocked (Count)
board.cache_hierarchy.cc_l3cache.blockedCauses::no_targets            0                       # number of times access was blocked (Count)
board.cache_hierarchy.cc_l3cache.avgBlocked::no_mshrs          nan                       # average number of cycles each access was blocked ((Cycle/Count))
board.cache_hierarchy.cc_l3cache.avgBlocked::no_targets          nan                       # average number of cycles each access was blocked ((Cycle/Count))
board.cache_hierarchy.cc_l3cache.demandMshrHits::cache_hierarchy.l2cache.prefetcher            4                       # number of demand (read+write) MSHR hits (Count)
board.cache_hierarchy.cc_l3cache.demandMshrHits::total            4                       # number of demand (read+write) MSHR hits (Count)
board.cache_hierarchy.cc_l3cache.overallMshrHits::cache_hierarchy.l2cache.prefetcher            4                       # number of overall MSHR hits (Count)
board.cache_hierarchy.cc_l3cache.overallMshrHits::total            4                       # number of overall MSHR hits (Count)
board.cache_hierarchy.cc_l3cache.demandMshrMisses::cache_hierarchy.l1dcaches0.prefetcher           26                       # number of demand (read+write) MSHR misses (Count)
board.cache_hierarchy.cc_l3cache.demandMshrMisses::cache_hierarchy.l2cache.prefetcher           26                       # number of demand (read+write) MSHR misses (Count)
board.cache_hierarchy.cc_l3cache.demandMshrMisses::processor.cores0.core.inst          419                       # number of demand (read+write) MSHR misses (Count)
board.cache_hierarchy.cc_l3cache.demandMshrMisses::processor.cores0.core.data          140                       # number of demand (read+write) MSHR misses (Count)
board.cache_hierarchy.cc_l3cache.demandMshrMisses::total          611                       # number of demand (read+write) MSHR misses (Count)
board.cache_hierarchy.cc_l3cache.overallMshrMisses::cache_hierarchy.cc_l3cache.prefetcher           23                       # number of overall MSHR misses (Count)
board.cache_hierarchy.cc_l3cache.overallMshrMisses::cache_hierarchy.l1dcaches0.prefetcher           26                       # number of overall MSHR misses (Count)
board.cache_hierarchy.cc_l3cache.overallMshrMisses::cache_hierarchy.l2cache.prefetcher           26                       # number of overall MSHR misses (Count)
board.cache_hierarchy.cc_l3cache.overallMshrMisses::processor.cores0.core.inst          419                       # number of overall MSHR misses (Count)
board.cache_hierarchy.cc_l3cache.overallMshrMisses::processor.cores0.core.data          140                       # number of overall MSHR misses (Count)
board.cache_hierarchy.cc_l3cache.overallMshrMisses::total          634                       # number of overall MSHR misses (Count)
board.cache_hierarchy.cc_l3cache.demandMshrMissLatency::cache_hierarchy.l1dcaches0.prefetcher      2276721                       # number of demand (read+write) MSHR miss ticks (Tick)
board.cache_hierarchy.cc_l3cache.demandMshrMissLatency::cache_hierarchy.l2cache.prefetcher      2035629                       # number of demand (read+write) MSHR miss ticks (Tick)
board.cache_hierarchy.cc_l3cache.demandMshrMissLatency::processor.cores0.core.inst     23005638                       # number of demand (read+write) MSHR miss ticks (Tick)
board.cache_hierarchy.cc_l3cache.demandMshrMissLatency::processor.cores0.core.data      9265059                       # number of demand (read+write) MSHR miss ticks (Tick)
board.cache_hierarchy.cc_l3cache.demandMshrMissLatency::total     36583047                       # number of demand (read+write) MSHR miss ticks (Tick)
board.cache_hierarchy.cc_l3cache.overallMshrMissLatency::cache_hierarchy.cc_l3cache.prefetcher      1367609                       # number of overall MSHR miss ticks (Tick)
board.cache_hierarchy.cc_l3cache.overallMshrMissLatency::cache_hierarchy.l1dcaches0.prefetcher      2276721                       # number of overall MSHR miss ticks (Tick)
board.cache_hierarchy.cc_l3cache.overallMshrMissLatency::cache_hierarchy.l2cache.prefetcher      2035629                       # number of overall MSHR miss ticks (Tick)
board.cache_hierarchy.cc_l3cache.overallMshrMissLatency::processor.cores0.core.inst     23005638                       # number of overall MSHR miss ticks (Tick)
board.cache_hierarchy.cc_l3cache.overallMshrMissLatency::processor.cores0.core.data      9265059                       # number of overall MSHR miss ticks (Tick)
board.cache_hierarchy.cc_l3cache.overallMshrMissLatency::total     37950656                       # number of overall MSHR miss ticks (Tick)
board.cache_hierarchy.cc_l3cache.demandMshrMissRate::cache_hierarchy.l1dcaches0.prefetcher     0.764706                       # mshr miss ratio for demand accesses (Ratio)
board.cache_hierarchy.cc_l3cache.demandMshrMissRate::cache_hierarchy.l2cache.prefetcher     0.866667                       # mshr miss ratio for demand accesses (Ratio)
board.cache_hierarchy.cc_l3cache.demandMshrMissRate::processor.cores0.core.inst            1                       # mshr miss ratio for demand accesses (Ratio)
board.cache_hierarchy.cc_l3cache.demandMshrMissRate::processor.cores0.core.data     0.979021                       # mshr miss ratio for demand accesses (Ratio)
board.cache_hierarchy.cc_l3cache.demandMshrMissRate::total     0.188348                       # mshr miss ratio for demand accesses (Ratio)
board.cache_hierarchy.cc_l3cache.overallMshrMissRate::cache_hierarchy.cc_l3cache.prefetcher          inf                       # mshr miss ratio for overall accesses (Ratio)
board.cache_hierarchy.cc_l3cache.overallMshrMissRate::cache_hierarchy.l1dcaches0.prefetcher     0.764706                       # mshr miss ratio for overall accesses (Ratio)
board.cache_hierarchy.cc_l3cache.overallMshrMissRate::cache_hierarchy.l2cache.prefetcher     0.866667                       # mshr miss ratio for overall accesses (Ratio)
board.cache_hierarchy.cc_l3cache.overallMshrMissRate::processor.cores0.core.inst            1                       # mshr miss ratio for overall accesses (Ratio)
board.cache_hierarchy.cc_l3cache.overallMshrMissRate::processor.cores0.core.data     0.979021                       # mshr miss ratio for overall accesses (Ratio)
board.cache_hierarchy.cc_l3cache.overallMshrMissRate::total     0.195438                       # mshr miss ratio for overall accesses (Ratio)
board.cache_hierarchy.cc_l3cache.demandAvgMshrMissLatency::cache_hierarchy.l1dcaches0.prefetcher 87566.192308                       # average overall mshr miss latency ((Tick/Count))
board.cache_hierarchy.cc_l3cache.demandAvgMshrMissLatency::cache_hierarchy.l2cache.prefetcher 78293.423077                       # average overall mshr miss latency ((Tick/Count))
board.cache_hierarchy.cc_l3cache.demandAvgMshrMissLatency::processor.cores0.core.inst 54906.057279                       # average overall mshr miss latency ((Tick/Count))
board.cache_hierarchy.cc_l3cache.demandAvgMshrMissLatency::processor.cores0.core.data 66178.992857                       # average overall mshr miss latency ((Tick/Count))
board.cache_hierarchy.cc_l3cache.demandAvgMshrMissLatency::total 59874.054010                       # average overall mshr miss latency ((Tick/Count))
board.cache_hierarchy.cc_l3cache.overallAvgMshrMissLatency::cache_hierarchy.cc_l3cache.prefetcher 59461.260870                       # average overall mshr miss latency ((Tick/Count))
board.cache_hierarchy.cc_l3cache.overallAvgMshrMissLatency::cache_hierarchy.l1dcaches0.prefetcher 87566.192308                       # average overall mshr miss latency ((Tick/Count))
board.cache_hierarchy.cc_l3cache.overallAvgMshrMissLatency::cache_hierarchy.l2cache.prefetcher 78293.423077                       # average overall mshr miss latency ((Tick/Count))
board.cache_hierarchy.cc_l3cache.overallAvgMshrMissLatency::processor.cores0.core.inst 54906.057279                       # average overall mshr miss latency ((Tick/Count))
board.cache_hierarchy.cc_l3cache.overallAvgMshrMissLatency::processor.cores0.core.data 66178.992857                       # average overall mshr miss latency ((Tick/Count))
board.cache_hierarchy.cc_l3cache.overallAvgMshrMissLatency::total 59859.078864                       # average overall mshr miss latency ((Tick/Count))
board.cache_hierarchy.cc_l3cache.replacements            0                       # number of replacements (Count)
board.cache_hierarchy.cc_l3cache.HardPFReq.mshrMisses::cache_hierarchy.cc_l3cache.prefetcher           23                       # number of HardPFReq MSHR misses (Count)
board.cache_hierarchy.cc_l3cache.HardPFReq.mshrMisses::total           23                       # number of HardPFReq MSHR misses (Count)
board.cache_hierarchy.cc_l3cache.HardPFReq.mshrMissLatency::cache_hierarchy.cc_l3cache.prefetcher      1367609                       # number of HardPFReq MSHR miss ticks (Tick)
board.cache_hierarchy.cc_l3cache.HardPFReq.mshrMissLatency::total      1367609                       # number of HardPFReq MSHR miss ticks (Tick)
board.cache_hierarchy.cc_l3cache.HardPFReq.mshrMissRate::cache_hierarchy.cc_l3cache.prefetcher          inf                       # mshr miss rate for HardPFReq accesses (Ratio)
board.cache_hierarchy.cc_l3cache.HardPFReq.mshrMissRate::total          inf                       # mshr miss rate for HardPFReq accesses (Ratio)
board.cache_hierarchy.cc_l3cache.HardPFReq.avgMshrMissLatency::cache_hierarchy.cc_l3cache.prefetcher 59461.260870                       # average HardPFReq mshr miss latency ((Tick/Count))
board.cache_hierarchy.cc_l3cache.HardPFReq.avgMshrMissLatency::total 59461.260870                       # average HardPFReq mshr miss latency ((Tick/Count))
board.cache_hierarchy.cc_l3cache.ReadExReq.misses::processor.cores0.core.data           57                       # number of ReadExReq misses (Count)
board.cache_hierarchy.cc_l3cache.ReadExReq.misses::total           57                       # number of ReadExReq misses (Count)
board.cache_hierarchy.cc_l3cache.ReadExReq.missLatency::processor.cores0.core.data      3784545                       # number of ReadExReq miss ticks (Tick)
board.cache_hierarchy.cc_l3cache.ReadExReq.missLatency::total      3784545                       # number of ReadExReq miss ticks (Tick)
board.cache_hierarchy.cc_l3cache.ReadExReq.accesses::processor.cores0.core.data           57                       # number of ReadExReq accesses(hits+misses) (Count)
board.cache_hierarchy.cc_l3cache.ReadExReq.accesses::total           57                       # number of ReadExReq accesses(hits+misses) (Count)
board.cache_hierarchy.cc_l3cache.ReadExReq.missRate::processor.cores0.core.data            1                       # miss rate for ReadExReq accesses (Ratio)
board.cache_hierarchy.cc_l3cache.ReadExReq.missRate::total            1                       # miss rate for ReadExReq accesses (Ratio)
board.cache_hierarchy.cc_l3cache.ReadExReq.avgMissLatency::processor.cores0.core.data 66395.526316                       # average ReadExReq miss latency ((Tick/Count))
board.cache_hierarchy.cc_l3cache.ReadExReq.avgMissLatency::total 66395.526316                       # average ReadExReq miss latency ((Tick/Count))
board.cache_hierarchy.cc_l3cache.ReadExReq.mshrMisses::processor.cores0.core.data           57                       # number of ReadExReq MSHR misses (Count)
board.cache_hierarchy.cc_l3cache.ReadExReq.mshrMisses::total           57                       # number of ReadExReq MSHR misses (Count)
board.cache_hierarchy.cc_l3cache.ReadExReq.mshrMissLatency::processor.cores0.core.data      3765564                       # number of ReadExReq MSHR miss ticks (Tick)
board.cache_hierarchy.cc_l3cache.ReadExReq.mshrMissLatency::total      3765564                       # number of ReadExReq MSHR miss ticks (Tick)
board.cache_hierarchy.cc_l3cache.ReadExReq.mshrMissRate::processor.cores0.core.data            1                       # mshr miss rate for ReadExReq accesses (Ratio)
board.cache_hierarchy.cc_l3cache.ReadExReq.mshrMissRate::total            1                       # mshr miss rate for ReadExReq accesses (Ratio)
board.cache_hierarchy.cc_l3cache.ReadExReq.avgMshrMissLatency::processor.cores0.core.data 66062.526316                       # average ReadExReq mshr miss latency ((Tick/Count))
board.cache_hierarchy.cc_l3cache.ReadExReq.avgMshrMissLatency::total 66062.526316                       # average ReadExReq mshr miss latency ((Tick/Count))
board.cache_hierarchy.cc_l3cache.ReadReq.hits::processor.cores0.core.cc_buffer         1267                       # number of ReadReq hits (Count)
board.cache_hierarchy.cc_l3cache.ReadReq.hits::total         1267                       # number of ReadReq hits (Count)
board.cache_hierarchy.cc_l3cache.ReadReq.misses::processor.cores0.core.cc_buffer            1                       # number of ReadReq misses (Count)
board.cache_hierarchy.cc_l3cache.ReadReq.misses::total            1                       # number of ReadReq misses (Count)
board.cache_hierarchy.cc_l3cache.ReadReq.accesses::processor.cores0.core.cc_buffer         1268                       # number of ReadReq accesses(hits+misses) (Count)
board.cache_hierarchy.cc_l3cache.ReadReq.accesses::total         1268                       # number of ReadReq accesses(hits+misses) (Count)
board.cache_hierarchy.cc_l3cache.ReadReq.missRate::processor.cores0.core.cc_buffer     0.000789                       # miss rate for ReadReq accesses (Ratio)
board.cache_hierarchy.cc_l3cache.ReadReq.missRate::total     0.000789                       # miss rate for ReadReq accesses (Ratio)
board.cache_hierarchy.cc_l3cache.ReadSharedReq.hits::cache_hierarchy.l1dcaches0.prefetcher            8                       # number of ReadSharedReq hits (Count)
board.cache_hierarchy.cc_l3cache.ReadSharedReq.hits::processor.cores0.core.data            3                       # number of ReadSharedReq hits (Count)
board.cache_hierarchy.cc_l3cache.ReadSharedReq.hits::total           11                       # number of ReadSharedReq hits (Count)
board.cache_hierarchy.cc_l3cache.ReadSharedReq.misses::cache_hierarchy.l1dcaches0.prefetcher           26                       # number of ReadSharedReq misses (Count)
board.cache_hierarchy.cc_l3cache.ReadSharedReq.misses::cache_hierarchy.l2cache.prefetcher           30                       # number of ReadSharedReq misses (Count)
board.cache_hierarchy.cc_l3cache.ReadSharedReq.misses::processor.cores0.core.inst          419                       # number of ReadSharedReq misses (Count)
board.cache_hierarchy.cc_l3cache.ReadSharedReq.misses::processor.cores0.core.data           83                       # number of ReadSharedReq misses (Count)
board.cache_hierarchy.cc_l3cache.ReadSharedReq.misses::total          558                       # number of ReadSharedReq misses (Count)
board.cache_hierarchy.cc_l3cache.ReadSharedReq.missLatency::cache_hierarchy.l1dcaches0.prefetcher      2285379                       # number of ReadSharedReq miss ticks (Tick)
board.cache_hierarchy.cc_l3cache.ReadSharedReq.missLatency::cache_hierarchy.l2cache.prefetcher      2180151                       # number of ReadSharedReq miss ticks (Tick)
board.cache_hierarchy.cc_l3cache.ReadSharedReq.missLatency::processor.cores0.core.inst     23144832                       # number of ReadSharedReq miss ticks (Tick)
board.cache_hierarchy.cc_l3cache.ReadSharedReq.missLatency::processor.cores0.core.data      5527134                       # number of ReadSharedReq miss ticks (Tick)
board.cache_hierarchy.cc_l3cache.ReadSharedReq.missLatency::total     33137496                       # number of ReadSharedReq miss ticks (Tick)
board.cache_hierarchy.cc_l3cache.ReadSharedReq.accesses::cache_hierarchy.l1dcaches0.prefetcher           34                       # number of ReadSharedReq accesses(hits+misses) (Count)
board.cache_hierarchy.cc_l3cache.ReadSharedReq.accesses::cache_hierarchy.l2cache.prefetcher           30                       # number of ReadSharedReq accesses(hits+misses) (Count)
board.cache_hierarchy.cc_l3cache.ReadSharedReq.accesses::processor.cores0.core.inst          419                       # number of ReadSharedReq accesses(hits+misses) (Count)
board.cache_hierarchy.cc_l3cache.ReadSharedReq.accesses::processor.cores0.core.data           86                       # number of ReadSharedReq accesses(hits+misses) (Count)
board.cache_hierarchy.cc_l3cache.ReadSharedReq.accesses::total          569                       # number of ReadSharedReq accesses(hits+misses) (Count)
board.cache_hierarchy.cc_l3cache.ReadSharedReq.missRate::cache_hierarchy.l1dcaches0.prefetcher     0.764706                       # miss rate for ReadSharedReq accesses (Ratio)
board.cache_hierarchy.cc_l3cache.ReadSharedReq.missRate::cache_hierarchy.l2cache.prefetcher            1                       # miss rate for ReadSharedReq accesses (Ratio)
board.cache_hierarchy.cc_l3cache.ReadSharedReq.missRate::processor.cores0.core.inst            1                       # miss rate for ReadSharedReq accesses (Ratio)
board.cache_hierarchy.cc_l3cache.ReadSharedReq.missRate::processor.cores0.core.data     0.965116                       # miss rate for ReadSharedReq accesses (Ratio)
board.cache_hierarchy.cc_l3cache.ReadSharedReq.missRate::total     0.980668                       # miss rate for ReadSharedReq accesses (Ratio)
board.cache_hierarchy.cc_l3cache.ReadSharedReq.avgMissLatency::cache_hierarchy.l1dcaches0.prefetcher 87899.192308                       # average ReadSharedReq miss latency ((Tick/Count))
board.cache_hierarchy.cc_l3cache.ReadSharedReq.avgMissLatency::cache_hierarchy.l2cache.prefetcher 72671.700000                       # average ReadSharedReq miss latency ((Tick/Count))
board.cache_hierarchy.cc_l3cache.ReadSharedReq.avgMissLatency::processor.cores0.core.inst 55238.262530                       # average ReadSharedReq miss latency ((Tick/Count))
board.cache_hierarchy.cc_l3cache.ReadSharedReq.avgMissLatency::processor.cores0.core.data 66591.975904                       # average ReadSharedReq miss latency ((Tick/Count))
board.cache_hierarchy.cc_l3cache.ReadSharedReq.avgMissLatency::total 59386.193548                       # average ReadSharedReq miss latency ((Tick/Count))
board.cache_hierarchy.cc_l3cache.ReadSharedReq.mshrHits::cache_hierarchy.l2cache.prefetcher            4                       # number of ReadSharedReq MSHR hits (Count)
board.cache_hierarchy.cc_l3cache.ReadSharedReq.mshrHits::total            4                       # number of ReadSharedReq MSHR hits (Count)
board.cache_hierarchy.cc_l3cache.ReadSharedReq.mshrMisses::cache_hierarchy.l1dcaches0.prefetcher           26                       # number of ReadSharedReq MSHR misses (Count)
board.cache_hierarchy.cc_l3cache.ReadSharedReq.mshrMisses::cache_hierarchy.l2cache.prefetcher           26                       # number of ReadSharedReq MSHR misses (Count)
board.cache_hierarchy.cc_l3cache.ReadSharedReq.mshrMisses::processor.cores0.core.inst          419                       # number of ReadSharedReq MSHR misses (Count)
board.cache_hierarchy.cc_l3cache.ReadSharedReq.mshrMisses::processor.cores0.core.data           83                       # number of ReadSharedReq MSHR misses (Count)
board.cache_hierarchy.cc_l3cache.ReadSharedReq.mshrMisses::total          554                       # number of ReadSharedReq MSHR misses (Count)
board.cache_hierarchy.cc_l3cache.ReadSharedReq.mshrMissLatency::cache_hierarchy.l1dcaches0.prefetcher      2276721                       # number of ReadSharedReq MSHR miss ticks (Tick)
board.cache_hierarchy.cc_l3cache.ReadSharedReq.mshrMissLatency::cache_hierarchy.l2cache.prefetcher      2035629                       # number of ReadSharedReq MSHR miss ticks (Tick)
board.cache_hierarchy.cc_l3cache.ReadSharedReq.mshrMissLatency::processor.cores0.core.inst     23005638                       # number of ReadSharedReq MSHR miss ticks (Tick)
board.cache_hierarchy.cc_l3cache.ReadSharedReq.mshrMissLatency::processor.cores0.core.data      5499495                       # number of ReadSharedReq MSHR miss ticks (Tick)
board.cache_hierarchy.cc_l3cache.ReadSharedReq.mshrMissLatency::total     32817483                       # number of ReadSharedReq MSHR miss ticks (Tick)
board.cache_hierarchy.cc_l3cache.ReadSharedReq.mshrMissRate::cache_hierarchy.l1dcaches0.prefetcher     0.764706                       # mshr miss rate for ReadSharedReq accesses (Ratio)
board.cache_hierarchy.cc_l3cache.ReadSharedReq.mshrMissRate::cache_hierarchy.l2cache.prefetcher     0.866667                       # mshr miss rate for ReadSharedReq accesses (Ratio)
board.cache_hierarchy.cc_l3cache.ReadSharedReq.mshrMissRate::processor.cores0.core.inst            1                       # mshr miss rate for ReadSharedReq accesses (Ratio)
board.cache_hierarchy.cc_l3cache.ReadSharedReq.mshrMissRate::processor.cores0.core.data     0.965116                       # mshr miss rate for ReadSharedReq accesses (Ratio)
board.cache_hierarchy.cc_l3cache.ReadSharedReq.mshrMissRate::total     0.973638                       # mshr miss rate for ReadSharedReq accesses (Ratio)
board.cache_hierarchy.cc_l3cache.ReadSharedReq.avgMshrMissLatency::cache_hierarchy.l1dcaches0.prefetcher 87566.192308                       # average ReadSharedReq mshr miss latency ((Tick/Count))
board.cache_hierarchy.cc_l3cache.ReadSharedReq.avgMshrMissLatency::cache_hierarchy.l2cache.prefetcher 78293.423077                       # average ReadSharedReq mshr miss latency ((Tick/Count))
board.cache_hierarchy.cc_l3cache.ReadSharedReq.avgMshrMissLatency::processor.cores0.core.inst 54906.057279                       # average ReadSharedReq mshr miss latency ((Tick/Count))
board.cache_hierarchy.cc_l3cache.ReadSharedReq.avgMshrMissLatency::processor.cores0.core.data 66258.975904                       # average ReadSharedReq mshr miss latency ((Tick/Count))
board.cache_hierarchy.cc_l3cache.ReadSharedReq.avgMshrMissLatency::total 59237.333935                       # average ReadSharedReq mshr miss latency ((Tick/Count))
board.cache_hierarchy.cc_l3cache.WriteReq.hits::processor.cores0.core.cc_buffer         1046                       # number of WriteReq hits (Count)
board.cache_hierarchy.cc_l3cache.WriteReq.hits::total         1046                       # number of WriteReq hits (Count)
board.cache_hierarchy.cc_l3cache.WriteReq.misses::processor.cores0.core.cc_buffer          304                       # number of WriteReq misses (Count)
board.cache_hierarchy.cc_l3cache.WriteReq.misses::total          304                       # number of WriteReq misses (Count)
board.cache_hierarchy.cc_l3cache.WriteReq.accesses::processor.cores0.core.cc_buffer         1350                       # number of WriteReq accesses(hits+misses) (Count)
board.cache_hierarchy.cc_l3cache.WriteReq.accesses::total         1350                       # number of WriteReq accesses(hits+misses) (Count)
board.cache_hierarchy.cc_l3cache.WriteReq.missRate::processor.cores0.core.cc_buffer     0.225185                       # miss rate for WriteReq accesses (Ratio)
board.cache_hierarchy.cc_l3cache.WriteReq.missRate::total     0.225185                       # miss rate for WriteReq accesses (Ratio)
board.cache_hierarchy.cc_l3cache.power_state.pwrStateResidencyTicks::UNDEFINED     21188457                       # Cumulative time (in ticks) in various power states (Tick)
board.cache_hierarchy.cc_l3cache.prefetcher.demandMshrMisses          611                       # demands not covered by prefetchs (Count)
board.cache_hierarchy.cc_l3cache.prefetcher.pfIssued           42                       # number of hwpf issued (Count)
board.cache_hierarchy.cc_l3cache.prefetcher.pfUseful           11                       # number of useful prefetch (Count)
board.cache_hierarchy.cc_l3cache.prefetcher.pfUsefulButMiss            0                       # number of hit on prefetch but cache block is not in an usable state (Count)
board.cache_hierarchy.cc_l3cache.prefetcher.accuracy     0.261905                       # accuracy of the prefetcher (Count)
board.cache_hierarchy.cc_l3cache.prefetcher.coverage     0.017685                       # coverage brought by this prefetcher (Count)
board.cache_hierarchy.cc_l3cache.prefetcher.pfHitInCache            5                       # number of prefetches hitting in cache (Count)
board.cache_hierarchy.cc_l3cache.prefetcher.pfHitInMSHR           14                       # number of prefetches hitting in a MSHR (Count)
board.cache_hierarchy.cc_l3cache.prefetcher.pfHitInWB            0                       # number of prefetches hit in the Write Buffer (Count)
board.cache_hierarchy.cc_l3cache.prefetcher.pfLate           19                       # number of late prefetches (hitting in cache, MSHR or WB) (Count)
board.cache_hierarchy.cc_l3cache.prefetcher.pfIdentified           64                       # number of prefetch candidates identified (Count)
board.cache_hierarchy.cc_l3cache.prefetcher.pfBufferHit           12                       # number of redundant prefetches already in prefetch queue (Count)
board.cache_hierarchy.cc_l3cache.prefetcher.pfInCache            0                       # number of redundant prefetches already in cache/mshr dropped (Count)
board.cache_hierarchy.cc_l3cache.prefetcher.pfRemovedDemand            5                       # number of prefetches dropped due to a demand for the same address (Count)
board.cache_hierarchy.cc_l3cache.prefetcher.pfRemovedFull            0                       # number of prefetches dropped due to prefetch queue size (Count)
board.cache_hierarchy.cc_l3cache.prefetcher.pfSpanPage           24                       # number of prefetches that crossed the page (Count)
board.cache_hierarchy.cc_l3cache.prefetcher.pfUsefulSpanPage            0                       # number of prefetches that is useful and crossed the page (Count)
board.cache_hierarchy.cc_l3cache.prefetcher.power_state.pwrStateResidencyTicks::UNDEFINED     21188457                       # Cumulative time (in ticks) in various power states (Tick)
board.cache_hierarchy.cc_l3cache.tags.tagsInUse   333.632304                       # Average ticks per tags in use ((Tick/Count))
board.cache_hierarchy.cc_l3cache.tags.totalRefs         2957                       # Total number of references to valid blocks. (Count)
board.cache_hierarchy.cc_l3cache.tags.sampledRefs          633                       # Sample count of references to valid blocks. (Count)
board.cache_hierarchy.cc_l3cache.tags.avgRefs     4.671406                       # Average number of references to valid blocks. ((Count/Count))
board.cache_hierarchy.cc_l3cache.tags.warmupTick        69597                       # The tick when the warmup percentage was hit. (Tick)
board.cache_hierarchy.cc_l3cache.tags.occupancies::cache_hierarchy.cc_l3cache.prefetcher    14.340993                       # Average occupied blocks per tick, per requestor ((Count/Tick))
board.cache_hierarchy.cc_l3cache.tags.occupancies::cache_hierarchy.l1dcaches0.prefetcher    17.067768                       # Average occupied blocks per tick, per requestor ((Count/Tick))
board.cache_hierarchy.cc_l3cache.tags.occupancies::cache_hierarchy.l2cache.prefetcher    17.290214                       # Average occupied blocks per tick, per requestor ((Count/Tick))
board.cache_hierarchy.cc_l3cache.tags.occupancies::processor.cores0.core.inst   201.564281                       # Average occupied blocks per tick, per requestor ((Count/Tick))
board.cache_hierarchy.cc_l3cache.tags.occupancies::processor.cores0.core.data    83.369048                       # Average occupied blocks per tick, per requestor ((Count/Tick))
board.cache_hierarchy.cc_l3cache.tags.avgOccs::cache_hierarchy.cc_l3cache.prefetcher     0.003501                       # Average percentage of cache occupancy ((Ratio/Tick))
board.cache_hierarchy.cc_l3cache.tags.avgOccs::cache_hierarchy.l1dcaches0.prefetcher     0.004167                       # Average percentage of cache occupancy ((Ratio/Tick))
board.cache_hierarchy.cc_l3cache.tags.avgOccs::cache_hierarchy.l2cache.prefetcher     0.004221                       # Average percentage of cache occupancy ((Ratio/Tick))
board.cache_hierarchy.cc_l3cache.tags.avgOccs::processor.cores0.core.inst     0.049210                       # Average percentage of cache occupancy ((Ratio/Tick))
board.cache_hierarchy.cc_l3cache.tags.avgOccs::processor.cores0.core.data     0.020354                       # Average percentage of cache occupancy ((Ratio/Tick))
board.cache_hierarchy.cc_l3cache.tags.avgOccs::total     0.081453                       # Average percentage of cache occupancy ((Ratio/Tick))
board.cache_hierarchy.cc_l3cache.tags.occupanciesTaskId::1022           75                       # Occupied blocks per task id (Count)
board.cache_hierarchy.cc_l3cache.tags.occupanciesTaskId::1024          558                       # Occupied blocks per task id (Count)
board.cache_hierarchy.cc_l3cache.tags.ageTaskId_1022::1           75                       # Occupied blocks per task id, per block age (Count)
board.cache_hierarchy.cc_l3cache.tags.ageTaskId_1024::0          255                       # Occupied blocks per task id, per block age (Count)
board.cache_hierarchy.cc_l3cache.tags.ageTaskId_1024::1          303                       # Occupied blocks per task id, per block age (Count)
board.cache_hierarchy.cc_l3cache.tags.ratioOccsTaskId::1022     0.018311                       # Ratio of occupied blocks and all blocks, per task id (Ratio)
board.cache_hierarchy.cc_l3cache.tags.ratioOccsTaskId::1024     0.136230                       # Ratio of occupied blocks and all blocks, per task id (Ratio)
board.cache_hierarchy.cc_l3cache.tags.tagAccesses        52537                       # Number of tag accesses (Count)
board.cache_hierarchy.cc_l3cache.tags.dataAccesses        52537                       # Number of data accesses (Count)
board.cache_hierarchy.cc_l3cache.tags.power_state.pwrStateResidencyTicks::UNDEFINED     21188457                       # Cumulative time (in ticks) in various power states (Tick)
board.cache_hierarchy.dptw_caches0.blockedCycles::no_mshrs            0                       # number of cycles access was blocked (Cycle)
board.cache_hierarchy.dptw_caches0.blockedCycles::no_targets            0                       # number of cycles access was blocked (Cycle)
board.cache_hierarchy.dptw_caches0.blockedCauses::no_mshrs            0                       # number of times access was blocked (Count)
board.cache_hierarchy.dptw_caches0.blockedCauses::no_targets            0                       # number of times access was blocked (Count)
board.cache_hierarchy.dptw_caches0.avgBlocked::no_mshrs          nan                       # average number of cycles each access was blocked ((Cycle/Count))
board.cache_hierarchy.dptw_caches0.avgBlocked::no_targets          nan                       # average number of cycles each access was blocked ((Cycle/Count))
board.cache_hierarchy.dptw_caches0.replacements            0                       # number of replacements (Count)
board.cache_hierarchy.dptw_caches0.power_state.pwrStateResidencyTicks::UNDEFINED     21188457                       # Cumulative time (in ticks) in various power states (Tick)
board.cache_hierarchy.dptw_caches0.tags.tagsInUse            0                       # Average ticks per tags in use ((Tick/Count))
board.cache_hierarchy.dptw_caches0.tags.totalRefs            0                       # Total number of references to valid blocks. (Count)
board.cache_hierarchy.dptw_caches0.tags.sampledRefs            0                       # Sample count of references to valid blocks. (Count)
board.cache_hierarchy.dptw_caches0.tags.avgRefs          nan                       # Average number of references to valid blocks. ((Count/Count))
board.cache_hierarchy.dptw_caches0.tags.warmupTick            0                       # The tick when the warmup percentage was hit. (Tick)
board.cache_hierarchy.dptw_caches0.tags.tagAccesses            0                       # Number of tag accesses (Count)
board.cache_hierarchy.dptw_caches0.tags.dataAccesses            0                       # Number of data accesses (Count)
board.cache_hierarchy.dptw_caches0.tags.power_state.pwrStateResidencyTicks::UNDEFINED     21188457                       # Cumulative time (in ticks) in various power states (Tick)
board.cache_hierarchy.dptw_caches1.blockedCycles::no_mshrs            0                       # number of cycles access was blocked (Cycle)
board.cache_hierarchy.dptw_caches1.blockedCycles::no_targets            0                       # number of cycles access was blocked (Cycle)
board.cache_hierarchy.dptw_caches1.blockedCauses::no_mshrs            0                       # number of times access was blocked (Count)
board.cache_hierarchy.dptw_caches1.blockedCauses::no_targets            0                       # number of times access was blocked (Count)
board.cache_hierarchy.dptw_caches1.avgBlocked::no_mshrs          nan                       # average number of cycles each access was blocked ((Cycle/Count))
board.cache_hierarchy.dptw_caches1.avgBlocked::no_targets          nan                       # average number of cycles each access was blocked ((Cycle/Count))
board.cache_hierarchy.dptw_caches1.replacements            0                       # number of replacements (Count)
board.cache_hierarchy.dptw_caches1.power_state.pwrStateResidencyTicks::UNDEFINED     21188457                       # Cumulative time (in ticks) in various power states (Tick)
board.cache_hierarchy.dptw_caches1.tags.tagsInUse            0                       # Average ticks per tags in use ((Tick/Count))
board.cache_hierarchy.dptw_caches1.tags.totalRefs            0                       # Total number of references to valid blocks. (Count)
board.cache_hierarchy.dptw_caches1.tags.sampledRefs            0                       # Sample count of references to valid blocks. (Count)
board.cache_hierarchy.dptw_caches1.tags.avgRefs          nan                       # Average number of references to valid blocks. ((Count/Count))
board.cache_hierarchy.dptw_caches1.tags.warmupTick            0                       # The tick when the warmup percentage was hit. (Tick)
board.cache_hierarchy.dptw_caches1.tags.tagAccesses            0                       # Number of tag accesses (Count)
board.cache_hierarchy.dptw_caches1.tags.dataAccesses            0                       # Number of data accesses (Count)
board.cache_hierarchy.dptw_caches1.tags.power_state.pwrStateResidencyTicks::UNDEFINED     21188457                       # Cumulative time (in ticks) in various power states (Tick)
board.cache_hierarchy.dptw_caches2.blockedCycles::no_mshrs            0                       # number of cycles access was blocked (Cycle)
board.cache_hierarchy.dptw_caches2.blockedCycles::no_targets            0                       # number of cycles access was blocked (Cycle)
board.cache_hierarchy.dptw_caches2.blockedCauses::no_mshrs            0                       # number of times access was blocked (Count)
board.cache_hierarchy.dptw_caches2.blockedCauses::no_targets            0                       # number of times access was blocked (Count)
board.cache_hierarchy.dptw_caches2.avgBlocked::no_mshrs          nan                       # average number of cycles each access was blocked ((Cycle/Count))
board.cache_hierarchy.dptw_caches2.avgBlocked::no_targets          nan                       # average number of cycles each access was blocked ((Cycle/Count))
board.cache_hierarchy.dptw_caches2.replacements            0                       # number of replacements (Count)
board.cache_hierarchy.dptw_caches2.power_state.pwrStateResidencyTicks::UNDEFINED     21188457                       # Cumulative time (in ticks) in various power states (Tick)
board.cache_hierarchy.dptw_caches2.tags.tagsInUse            0                       # Average ticks per tags in use ((Tick/Count))
board.cache_hierarchy.dptw_caches2.tags.totalRefs            0                       # Total number of references to valid blocks. (Count)
board.cache_hierarchy.dptw_caches2.tags.sampledRefs            0                       # Sample count of references to valid blocks. (Count)
board.cache_hierarchy.dptw_caches2.tags.avgRefs          nan                       # Average number of references to valid blocks. ((Count/Count))
board.cache_hierarchy.dptw_caches2.tags.warmupTick            0                       # The tick when the warmup percentage was hit. (Tick)
board.cache_hierarchy.dptw_caches2.tags.tagAccesses            0                       # Number of tag accesses (Count)
board.cache_hierarchy.dptw_caches2.tags.dataAccesses            0                       # Number of data accesses (Count)
board.cache_hierarchy.dptw_caches2.tags.power_state.pwrStateResidencyTicks::UNDEFINED     21188457                       # Cumulative time (in ticks) in various power states (Tick)
board.cache_hierarchy.dptw_caches3.blockedCycles::no_mshrs            0                       # number of cycles access was blocked (Cycle)
board.cache_hierarchy.dptw_caches3.blockedCycles::no_targets            0                       # number of cycles access was blocked (Cycle)
board.cache_hierarchy.dptw_caches3.blockedCauses::no_mshrs            0                       # number of times access was blocked (Count)
board.cache_hierarchy.dptw_caches3.blockedCauses::no_targets            0                       # number of times access was blocked (Count)
board.cache_hierarchy.dptw_caches3.avgBlocked::no_mshrs          nan                       # average number of cycles each access was blocked ((Cycle/Count))
board.cache_hierarchy.dptw_caches3.avgBlocked::no_targets          nan                       # average number of cycles each access was blocked ((Cycle/Count))
board.cache_hierarchy.dptw_caches3.replacements            0                       # number of replacements (Count)
board.cache_hierarchy.dptw_caches3.power_state.pwrStateResidencyTicks::UNDEFINED     21188457                       # Cumulative time (in ticks) in various power states (Tick)
board.cache_hierarchy.dptw_caches3.tags.tagsInUse            0                       # Average ticks per tags in use ((Tick/Count))
board.cache_hierarchy.dptw_caches3.tags.totalRefs            0                       # Total number of references to valid blocks. (Count)
board.cache_hierarchy.dptw_caches3.tags.sampledRefs            0                       # Sample count of references to valid blocks. (Count)
board.cache_hierarchy.dptw_caches3.tags.avgRefs          nan                       # Average number of references to valid blocks. ((Count/Count))
board.cache_hierarchy.dptw_caches3.tags.warmupTick            0                       # The tick when the warmup percentage was hit. (Tick)
board.cache_hierarchy.dptw_caches3.tags.tagAccesses            0                       # Number of tag accesses (Count)
board.cache_hierarchy.dptw_caches3.tags.dataAccesses            0                       # Number of data accesses (Count)
board.cache_hierarchy.dptw_caches3.tags.power_state.pwrStateResidencyTicks::UNDEFINED     21188457                       # Cumulative time (in ticks) in various power states (Tick)
board.cache_hierarchy.dptw_caches4.blockedCycles::no_mshrs            0                       # number of cycles access was blocked (Cycle)
board.cache_hierarchy.dptw_caches4.blockedCycles::no_targets            0                       # number of cycles access was blocked (Cycle)
board.cache_hierarchy.dptw_caches4.blockedCauses::no_mshrs            0                       # number of times access was blocked (Count)
board.cache_hierarchy.dptw_caches4.blockedCauses::no_targets            0                       # number of times access was blocked (Count)
board.cache_hierarchy.dptw_caches4.avgBlocked::no_mshrs          nan                       # average number of cycles each access was blocked ((Cycle/Count))
board.cache_hierarchy.dptw_caches4.avgBlocked::no_targets          nan                       # average number of cycles each access was blocked ((Cycle/Count))
board.cache_hierarchy.dptw_caches4.replacements            0                       # number of replacements (Count)
board.cache_hierarchy.dptw_caches4.power_state.pwrStateResidencyTicks::UNDEFINED     21188457                       # Cumulative time (in ticks) in various power states (Tick)
board.cache_hierarchy.dptw_caches4.tags.tagsInUse            0                       # Average ticks per tags in use ((Tick/Count))
board.cache_hierarchy.dptw_caches4.tags.totalRefs            0                       # Total number of references to valid blocks. (Count)
board.cache_hierarchy.dptw_caches4.tags.sampledRefs            0                       # Sample count of references to valid blocks. (Count)
board.cache_hierarchy.dptw_caches4.tags.avgRefs          nan                       # Average number of references to valid blocks. ((Count/Count))
board.cache_hierarchy.dptw_caches4.tags.warmupTick            0                       # The tick when the warmup percentage was hit. (Tick)
board.cache_hierarchy.dptw_caches4.tags.tagAccesses            0                       # Number of tag accesses (Count)
board.cache_hierarchy.dptw_caches4.tags.dataAccesses            0                       # Number of data accesses (Count)
board.cache_hierarchy.dptw_caches4.tags.power_state.pwrStateResidencyTicks::UNDEFINED     21188457                       # Cumulative time (in ticks) in various power states (Tick)
board.cache_hierarchy.dptw_caches5.blockedCycles::no_mshrs            0                       # number of cycles access was blocked (Cycle)
board.cache_hierarchy.dptw_caches5.blockedCycles::no_targets            0                       # number of cycles access was blocked (Cycle)
board.cache_hierarchy.dptw_caches5.blockedCauses::no_mshrs            0                       # number of times access was blocked (Count)
board.cache_hierarchy.dptw_caches5.blockedCauses::no_targets            0                       # number of times access was blocked (Count)
board.cache_hierarchy.dptw_caches5.avgBlocked::no_mshrs          nan                       # average number of cycles each access was blocked ((Cycle/Count))
board.cache_hierarchy.dptw_caches5.avgBlocked::no_targets          nan                       # average number of cycles each access was blocked ((Cycle/Count))
board.cache_hierarchy.dptw_caches5.replacements            0                       # number of replacements (Count)
board.cache_hierarchy.dptw_caches5.power_state.pwrStateResidencyTicks::UNDEFINED     21188457                       # Cumulative time (in ticks) in various power states (Tick)
board.cache_hierarchy.dptw_caches5.tags.tagsInUse            0                       # Average ticks per tags in use ((Tick/Count))
board.cache_hierarchy.dptw_caches5.tags.totalRefs            0                       # Total number of references to valid blocks. (Count)
board.cache_hierarchy.dptw_caches5.tags.sampledRefs            0                       # Sample count of references to valid blocks. (Count)
board.cache_hierarchy.dptw_caches5.tags.avgRefs          nan                       # Average number of references to valid blocks. ((Count/Count))
board.cache_hierarchy.dptw_caches5.tags.warmupTick            0                       # The tick when the warmup percentage was hit. (Tick)
board.cache_hierarchy.dptw_caches5.tags.tagAccesses            0                       # Number of tag accesses (Count)
board.cache_hierarchy.dptw_caches5.tags.dataAccesses            0                       # Number of data accesses (Count)
board.cache_hierarchy.dptw_caches5.tags.power_state.pwrStateResidencyTicks::UNDEFINED     21188457                       # Cumulative time (in ticks) in various power states (Tick)
board.cache_hierarchy.dptw_caches6.blockedCycles::no_mshrs            0                       # number of cycles access was blocked (Cycle)
board.cache_hierarchy.dptw_caches6.blockedCycles::no_targets            0                       # number of cycles access was blocked (Cycle)
board.cache_hierarchy.dptw_caches6.blockedCauses::no_mshrs            0                       # number of times access was blocked (Count)
board.cache_hierarchy.dptw_caches6.blockedCauses::no_targets            0                       # number of times access was blocked (Count)
board.cache_hierarchy.dptw_caches6.avgBlocked::no_mshrs          nan                       # average number of cycles each access was blocked ((Cycle/Count))
board.cache_hierarchy.dptw_caches6.avgBlocked::no_targets          nan                       # average number of cycles each access was blocked ((Cycle/Count))
board.cache_hierarchy.dptw_caches6.replacements            0                       # number of replacements (Count)
board.cache_hierarchy.dptw_caches6.power_state.pwrStateResidencyTicks::UNDEFINED     21188457                       # Cumulative time (in ticks) in various power states (Tick)
board.cache_hierarchy.dptw_caches6.tags.tagsInUse            0                       # Average ticks per tags in use ((Tick/Count))
board.cache_hierarchy.dptw_caches6.tags.totalRefs            0                       # Total number of references to valid blocks. (Count)
board.cache_hierarchy.dptw_caches6.tags.sampledRefs            0                       # Sample count of references to valid blocks. (Count)
board.cache_hierarchy.dptw_caches6.tags.avgRefs          nan                       # Average number of references to valid blocks. ((Count/Count))
board.cache_hierarchy.dptw_caches6.tags.warmupTick            0                       # The tick when the warmup percentage was hit. (Tick)
board.cache_hierarchy.dptw_caches6.tags.tagAccesses            0                       # Number of tag accesses (Count)
board.cache_hierarchy.dptw_caches6.tags.dataAccesses            0                       # Number of data accesses (Count)
board.cache_hierarchy.dptw_caches6.tags.power_state.pwrStateResidencyTicks::UNDEFINED     21188457                       # Cumulative time (in ticks) in various power states (Tick)
board.cache_hierarchy.dptw_caches7.blockedCycles::no_mshrs            0                       # number of cycles access was blocked (Cycle)
board.cache_hierarchy.dptw_caches7.blockedCycles::no_targets            0                       # number of cycles access was blocked (Cycle)
board.cache_hierarchy.dptw_caches7.blockedCauses::no_mshrs            0                       # number of times access was blocked (Count)
board.cache_hierarchy.dptw_caches7.blockedCauses::no_targets            0                       # number of times access was blocked (Count)
board.cache_hierarchy.dptw_caches7.avgBlocked::no_mshrs          nan                       # average number of cycles each access was blocked ((Cycle/Count))
board.cache_hierarchy.dptw_caches7.avgBlocked::no_targets          nan                       # average number of cycles each access was blocked ((Cycle/Count))
board.cache_hierarchy.dptw_caches7.replacements            0                       # number of replacements (Count)
board.cache_hierarchy.dptw_caches7.power_state.pwrStateResidencyTicks::UNDEFINED     21188457                       # Cumulative time (in ticks) in various power states (Tick)
board.cache_hierarchy.dptw_caches7.tags.tagsInUse            0                       # Average ticks per tags in use ((Tick/Count))
board.cache_hierarchy.dptw_caches7.tags.totalRefs            0                       # Total number of references to valid blocks. (Count)
board.cache_hierarchy.dptw_caches7.tags.sampledRefs            0                       # Sample count of references to valid blocks. (Count)
board.cache_hierarchy.dptw_caches7.tags.avgRefs          nan                       # Average number of references to valid blocks. ((Count/Count))
board.cache_hierarchy.dptw_caches7.tags.warmupTick            0                       # The tick when the warmup percentage was hit. (Tick)
board.cache_hierarchy.dptw_caches7.tags.tagAccesses            0                       # Number of tag accesses (Count)
board.cache_hierarchy.dptw_caches7.tags.dataAccesses            0                       # Number of data accesses (Count)
board.cache_hierarchy.dptw_caches7.tags.power_state.pwrStateResidencyTicks::UNDEFINED     21188457                       # Cumulative time (in ticks) in various power states (Tick)
board.cache_hierarchy.iptw_caches0.blockedCycles::no_mshrs            0                       # number of cycles access was blocked (Cycle)
board.cache_hierarchy.iptw_caches0.blockedCycles::no_targets            0                       # number of cycles access was blocked (Cycle)
board.cache_hierarchy.iptw_caches0.blockedCauses::no_mshrs            0                       # number of times access was blocked (Count)
board.cache_hierarchy.iptw_caches0.blockedCauses::no_targets            0                       # number of times access was blocked (Count)
board.cache_hierarchy.iptw_caches0.avgBlocked::no_mshrs          nan                       # average number of cycles each access was blocked ((Cycle/Count))
board.cache_hierarchy.iptw_caches0.avgBlocked::no_targets          nan                       # average number of cycles each access was blocked ((Cycle/Count))
board.cache_hierarchy.iptw_caches0.replacements            0                       # number of replacements (Count)
board.cache_hierarchy.iptw_caches0.power_state.pwrStateResidencyTicks::UNDEFINED     21188457                       # Cumulative time (in ticks) in various power states (Tick)
board.cache_hierarchy.iptw_caches0.tags.tagsInUse            0                       # Average ticks per tags in use ((Tick/Count))
board.cache_hierarchy.iptw_caches0.tags.totalRefs            0                       # Total number of references to valid blocks. (Count)
board.cache_hierarchy.iptw_caches0.tags.sampledRefs            0                       # Sample count of references to valid blocks. (Count)
board.cache_hierarchy.iptw_caches0.tags.avgRefs          nan                       # Average number of references to valid blocks. ((Count/Count))
board.cache_hierarchy.iptw_caches0.tags.warmupTick            0                       # The tick when the warmup percentage was hit. (Tick)
board.cache_hierarchy.iptw_caches0.tags.tagAccesses            0                       # Number of tag accesses (Count)
board.cache_hierarchy.iptw_caches0.tags.dataAccesses            0                       # Number of data accesses (Count)
board.cache_hierarchy.iptw_caches0.tags.power_state.pwrStateResidencyTicks::UNDEFINED     21188457                       # Cumulative time (in ticks) in various power states (Tick)
board.cache_hierarchy.iptw_caches1.blockedCycles::no_mshrs            0                       # number of cycles access was blocked (Cycle)
board.cache_hierarchy.iptw_caches1.blockedCycles::no_targets            0                       # number of cycles access was blocked (Cycle)
board.cache_hierarchy.iptw_caches1.blockedCauses::no_mshrs            0                       # number of times access was blocked (Count)
board.cache_hierarchy.iptw_caches1.blockedCauses::no_targets            0                       # number of times access was blocked (Count)
board.cache_hierarchy.iptw_caches1.avgBlocked::no_mshrs          nan                       # average number of cycles each access was blocked ((Cycle/Count))
board.cache_hierarchy.iptw_caches1.avgBlocked::no_targets          nan                       # average number of cycles each access was blocked ((Cycle/Count))
board.cache_hierarchy.iptw_caches1.replacements            0                       # number of replacements (Count)
board.cache_hierarchy.iptw_caches1.power_state.pwrStateResidencyTicks::UNDEFINED     21188457                       # Cumulative time (in ticks) in various power states (Tick)
board.cache_hierarchy.iptw_caches1.tags.tagsInUse            0                       # Average ticks per tags in use ((Tick/Count))
board.cache_hierarchy.iptw_caches1.tags.totalRefs            0                       # Total number of references to valid blocks. (Count)
board.cache_hierarchy.iptw_caches1.tags.sampledRefs            0                       # Sample count of references to valid blocks. (Count)
board.cache_hierarchy.iptw_caches1.tags.avgRefs          nan                       # Average number of references to valid blocks. ((Count/Count))
board.cache_hierarchy.iptw_caches1.tags.warmupTick            0                       # The tick when the warmup percentage was hit. (Tick)
board.cache_hierarchy.iptw_caches1.tags.tagAccesses            0                       # Number of tag accesses (Count)
board.cache_hierarchy.iptw_caches1.tags.dataAccesses            0                       # Number of data accesses (Count)
board.cache_hierarchy.iptw_caches1.tags.power_state.pwrStateResidencyTicks::UNDEFINED     21188457                       # Cumulative time (in ticks) in various power states (Tick)
board.cache_hierarchy.iptw_caches2.blockedCycles::no_mshrs            0                       # number of cycles access was blocked (Cycle)
board.cache_hierarchy.iptw_caches2.blockedCycles::no_targets            0                       # number of cycles access was blocked (Cycle)
board.cache_hierarchy.iptw_caches2.blockedCauses::no_mshrs            0                       # number of times access was blocked (Count)
board.cache_hierarchy.iptw_caches2.blockedCauses::no_targets            0                       # number of times access was blocked (Count)
board.cache_hierarchy.iptw_caches2.avgBlocked::no_mshrs          nan                       # average number of cycles each access was blocked ((Cycle/Count))
board.cache_hierarchy.iptw_caches2.avgBlocked::no_targets          nan                       # average number of cycles each access was blocked ((Cycle/Count))
board.cache_hierarchy.iptw_caches2.replacements            0                       # number of replacements (Count)
board.cache_hierarchy.iptw_caches2.power_state.pwrStateResidencyTicks::UNDEFINED     21188457                       # Cumulative time (in ticks) in various power states (Tick)
board.cache_hierarchy.iptw_caches2.tags.tagsInUse            0                       # Average ticks per tags in use ((Tick/Count))
board.cache_hierarchy.iptw_caches2.tags.totalRefs            0                       # Total number of references to valid blocks. (Count)
board.cache_hierarchy.iptw_caches2.tags.sampledRefs            0                       # Sample count of references to valid blocks. (Count)
board.cache_hierarchy.iptw_caches2.tags.avgRefs          nan                       # Average number of references to valid blocks. ((Count/Count))
board.cache_hierarchy.iptw_caches2.tags.warmupTick            0                       # The tick when the warmup percentage was hit. (Tick)
board.cache_hierarchy.iptw_caches2.tags.tagAccesses            0                       # Number of tag accesses (Count)
board.cache_hierarchy.iptw_caches2.tags.dataAccesses            0                       # Number of data accesses (Count)
board.cache_hierarchy.iptw_caches2.tags.power_state.pwrStateResidencyTicks::UNDEFINED     21188457                       # Cumulative time (in ticks) in various power states (Tick)
board.cache_hierarchy.iptw_caches3.blockedCycles::no_mshrs            0                       # number of cycles access was blocked (Cycle)
board.cache_hierarchy.iptw_caches3.blockedCycles::no_targets            0                       # number of cycles access was blocked (Cycle)
board.cache_hierarchy.iptw_caches3.blockedCauses::no_mshrs            0                       # number of times access was blocked (Count)
board.cache_hierarchy.iptw_caches3.blockedCauses::no_targets            0                       # number of times access was blocked (Count)
board.cache_hierarchy.iptw_caches3.avgBlocked::no_mshrs          nan                       # average number of cycles each access was blocked ((Cycle/Count))
board.cache_hierarchy.iptw_caches3.avgBlocked::no_targets          nan                       # average number of cycles each access was blocked ((Cycle/Count))
board.cache_hierarchy.iptw_caches3.replacements            0                       # number of replacements (Count)
board.cache_hierarchy.iptw_caches3.power_state.pwrStateResidencyTicks::UNDEFINED     21188457                       # Cumulative time (in ticks) in various power states (Tick)
board.cache_hierarchy.iptw_caches3.tags.tagsInUse            0                       # Average ticks per tags in use ((Tick/Count))
board.cache_hierarchy.iptw_caches3.tags.totalRefs            0                       # Total number of references to valid blocks. (Count)
board.cache_hierarchy.iptw_caches3.tags.sampledRefs            0                       # Sample count of references to valid blocks. (Count)
board.cache_hierarchy.iptw_caches3.tags.avgRefs          nan                       # Average number of references to valid blocks. ((Count/Count))
board.cache_hierarchy.iptw_caches3.tags.warmupTick            0                       # The tick when the warmup percentage was hit. (Tick)
board.cache_hierarchy.iptw_caches3.tags.tagAccesses            0                       # Number of tag accesses (Count)
board.cache_hierarchy.iptw_caches3.tags.dataAccesses            0                       # Number of data accesses (Count)
board.cache_hierarchy.iptw_caches3.tags.power_state.pwrStateResidencyTicks::UNDEFINED     21188457                       # Cumulative time (in ticks) in various power states (Tick)
board.cache_hierarchy.iptw_caches4.blockedCycles::no_mshrs            0                       # number of cycles access was blocked (Cycle)
board.cache_hierarchy.iptw_caches4.blockedCycles::no_targets            0                       # number of cycles access was blocked (Cycle)
board.cache_hierarchy.iptw_caches4.blockedCauses::no_mshrs            0                       # number of times access was blocked (Count)
board.cache_hierarchy.iptw_caches4.blockedCauses::no_targets            0                       # number of times access was blocked (Count)
board.cache_hierarchy.iptw_caches4.avgBlocked::no_mshrs          nan                       # average number of cycles each access was blocked ((Cycle/Count))
board.cache_hierarchy.iptw_caches4.avgBlocked::no_targets          nan                       # average number of cycles each access was blocked ((Cycle/Count))
board.cache_hierarchy.iptw_caches4.replacements            0                       # number of replacements (Count)
board.cache_hierarchy.iptw_caches4.power_state.pwrStateResidencyTicks::UNDEFINED     21188457                       # Cumulative time (in ticks) in various power states (Tick)
board.cache_hierarchy.iptw_caches4.tags.tagsInUse            0                       # Average ticks per tags in use ((Tick/Count))
board.cache_hierarchy.iptw_caches4.tags.totalRefs            0                       # Total number of references to valid blocks. (Count)
board.cache_hierarchy.iptw_caches4.tags.sampledRefs            0                       # Sample count of references to valid blocks. (Count)
board.cache_hierarchy.iptw_caches4.tags.avgRefs          nan                       # Average number of references to valid blocks. ((Count/Count))
board.cache_hierarchy.iptw_caches4.tags.warmupTick            0                       # The tick when the warmup percentage was hit. (Tick)
board.cache_hierarchy.iptw_caches4.tags.tagAccesses            0                       # Number of tag accesses (Count)
board.cache_hierarchy.iptw_caches4.tags.dataAccesses            0                       # Number of data accesses (Count)
board.cache_hierarchy.iptw_caches4.tags.power_state.pwrStateResidencyTicks::UNDEFINED     21188457                       # Cumulative time (in ticks) in various power states (Tick)
board.cache_hierarchy.iptw_caches5.blockedCycles::no_mshrs            0                       # number of cycles access was blocked (Cycle)
board.cache_hierarchy.iptw_caches5.blockedCycles::no_targets            0                       # number of cycles access was blocked (Cycle)
board.cache_hierarchy.iptw_caches5.blockedCauses::no_mshrs            0                       # number of times access was blocked (Count)
board.cache_hierarchy.iptw_caches5.blockedCauses::no_targets            0                       # number of times access was blocked (Count)
board.cache_hierarchy.iptw_caches5.avgBlocked::no_mshrs          nan                       # average number of cycles each access was blocked ((Cycle/Count))
board.cache_hierarchy.iptw_caches5.avgBlocked::no_targets          nan                       # average number of cycles each access was blocked ((Cycle/Count))
board.cache_hierarchy.iptw_caches5.replacements            0                       # number of replacements (Count)
board.cache_hierarchy.iptw_caches5.power_state.pwrStateResidencyTicks::UNDEFINED     21188457                       # Cumulative time (in ticks) in various power states (Tick)
board.cache_hierarchy.iptw_caches5.tags.tagsInUse            0                       # Average ticks per tags in use ((Tick/Count))
board.cache_hierarchy.iptw_caches5.tags.totalRefs            0                       # Total number of references to valid blocks. (Count)
board.cache_hierarchy.iptw_caches5.tags.sampledRefs            0                       # Sample count of references to valid blocks. (Count)
board.cache_hierarchy.iptw_caches5.tags.avgRefs          nan                       # Average number of references to valid blocks. ((Count/Count))
board.cache_hierarchy.iptw_caches5.tags.warmupTick            0                       # The tick when the warmup percentage was hit. (Tick)
board.cache_hierarchy.iptw_caches5.tags.tagAccesses            0                       # Number of tag accesses (Count)
board.cache_hierarchy.iptw_caches5.tags.dataAccesses            0                       # Number of data accesses (Count)
board.cache_hierarchy.iptw_caches5.tags.power_state.pwrStateResidencyTicks::UNDEFINED     21188457                       # Cumulative time (in ticks) in various power states (Tick)
board.cache_hierarchy.iptw_caches6.blockedCycles::no_mshrs            0                       # number of cycles access was blocked (Cycle)
board.cache_hierarchy.iptw_caches6.blockedCycles::no_targets            0                       # number of cycles access was blocked (Cycle)
board.cache_hierarchy.iptw_caches6.blockedCauses::no_mshrs            0                       # number of times access was blocked (Count)
board.cache_hierarchy.iptw_caches6.blockedCauses::no_targets            0                       # number of times access was blocked (Count)
board.cache_hierarchy.iptw_caches6.avgBlocked::no_mshrs          nan                       # average number of cycles each access was blocked ((Cycle/Count))
board.cache_hierarchy.iptw_caches6.avgBlocked::no_targets          nan                       # average number of cycles each access was blocked ((Cycle/Count))
board.cache_hierarchy.iptw_caches6.replacements            0                       # number of replacements (Count)
board.cache_hierarchy.iptw_caches6.power_state.pwrStateResidencyTicks::UNDEFINED     21188457                       # Cumulative time (in ticks) in various power states (Tick)
board.cache_hierarchy.iptw_caches6.tags.tagsInUse            0                       # Average ticks per tags in use ((Tick/Count))
board.cache_hierarchy.iptw_caches6.tags.totalRefs            0                       # Total number of references to valid blocks. (Count)
board.cache_hierarchy.iptw_caches6.tags.sampledRefs            0                       # Sample count of references to valid blocks. (Count)
board.cache_hierarchy.iptw_caches6.tags.avgRefs          nan                       # Average number of references to valid blocks. ((Count/Count))
board.cache_hierarchy.iptw_caches6.tags.warmupTick            0                       # The tick when the warmup percentage was hit. (Tick)
board.cache_hierarchy.iptw_caches6.tags.tagAccesses            0                       # Number of tag accesses (Count)
board.cache_hierarchy.iptw_caches6.tags.dataAccesses            0                       # Number of data accesses (Count)
board.cache_hierarchy.iptw_caches6.tags.power_state.pwrStateResidencyTicks::UNDEFINED     21188457                       # Cumulative time (in ticks) in various power states (Tick)
board.cache_hierarchy.iptw_caches7.blockedCycles::no_mshrs            0                       # number of cycles access was blocked (Cycle)
board.cache_hierarchy.iptw_caches7.blockedCycles::no_targets            0                       # number of cycles access was blocked (Cycle)
board.cache_hierarchy.iptw_caches7.blockedCauses::no_mshrs            0                       # number of times access was blocked (Count)
board.cache_hierarchy.iptw_caches7.blockedCauses::no_targets            0                       # number of times access was blocked (Count)
board.cache_hierarchy.iptw_caches7.avgBlocked::no_mshrs          nan                       # average number of cycles each access was blocked ((Cycle/Count))
board.cache_hierarchy.iptw_caches7.avgBlocked::no_targets          nan                       # average number of cycles each access was blocked ((Cycle/Count))
board.cache_hierarchy.iptw_caches7.replacements            0                       # number of replacements (Count)
board.cache_hierarchy.iptw_caches7.power_state.pwrStateResidencyTicks::UNDEFINED     21188457                       # Cumulative time (in ticks) in various power states (Tick)
board.cache_hierarchy.iptw_caches7.tags.tagsInUse            0                       # Average ticks per tags in use ((Tick/Count))
board.cache_hierarchy.iptw_caches7.tags.totalRefs            0                       # Total number of references to valid blocks. (Count)
board.cache_hierarchy.iptw_caches7.tags.sampledRefs            0                       # Sample count of references to valid blocks. (Count)
board.cache_hierarchy.iptw_caches7.tags.avgRefs          nan                       # Average number of references to valid blocks. ((Count/Count))
board.cache_hierarchy.iptw_caches7.tags.warmupTick            0                       # The tick when the warmup percentage was hit. (Tick)
board.cache_hierarchy.iptw_caches7.tags.tagAccesses            0                       # Number of tag accesses (Count)
board.cache_hierarchy.iptw_caches7.tags.dataAccesses            0                       # Number of data accesses (Count)
board.cache_hierarchy.iptw_caches7.tags.power_state.pwrStateResidencyTicks::UNDEFINED     21188457                       # Cumulative time (in ticks) in various power states (Tick)
board.cache_hierarchy.l1dcaches0.demandHits::processor.cores0.core.data         3054                       # number of demand (read+write) hits (Count)
board.cache_hierarchy.l1dcaches0.demandHits::total         3054                       # number of demand (read+write) hits (Count)
board.cache_hierarchy.l1dcaches0.overallHits::processor.cores0.core.data         3054                       # number of overall hits (Count)
board.cache_hierarchy.l1dcaches0.overallHits::total         3054                       # number of overall hits (Count)
board.cache_hierarchy.l1dcaches0.demandMisses::processor.cores0.core.data          261                       # number of demand (read+write) misses (Count)
board.cache_hierarchy.l1dcaches0.demandMisses::total          261                       # number of demand (read+write) misses (Count)
board.cache_hierarchy.l1dcaches0.overallMisses::processor.cores0.core.data          261                       # number of overall misses (Count)
board.cache_hierarchy.l1dcaches0.overallMisses::total          261                       # number of overall misses (Count)
[...]
board.processor.cores7.core.cc_buffer.execute_buffer_occupancy_histogram::405            0      0.00%    100.00% # Distribution of decode buffer occupancy (Unspecified)
board.processor.cores7.core.cc_buffer.execute_buffer_occupancy_histogram::406            0      0.00%    100.00% # Distribution of decode buffer occupancy (Unspecified)
board.processor.cores7.core.cc_buffer.execute_buffer_occupancy_histogram::407            0      0.00%    100.00% # Distribution of decode buffer occupancy (Unspecified)
board.processor.cores7.core.cc_buffer.execute_buffer_occupancy_histogram::408            0      0.00%    100.00% # Distribution of decode buffer occupancy (Unspecified)
board.processor.cores7.core.cc_buffer.execute_buffer_occupancy_histogram::409            0      0.00%    100.00% # Distribution of decode buffer occupancy (Unspecified)
board.processor.cores7.core.cc_buffer.execute_buffer_occupancy_histogram::410            0      0.00%    100.00% # Distribution of decode buffer occupancy (Unspecified)
board.processor.cores7.core.cc_buffer.execute_buffer_occupancy_histogram::411            0      0.00%    100.00% # Distribution of decode buffer occupancy (Unspecified)
board.processor.cores7.core.cc_buffer.execute_buffer_occupancy_histogram::412            0      0.00%    100.00% # Distribution of decode buffer occupancy (Unspecified)
board.processor.cores7.core.cc_buffer.execute_buffer_occupancy_histogram::413            0      0.00%    100.00% # Distribution of decode buffer occupancy (Unspecified)
board.processor.cores7.core.cc_buffer.execute_buffer_occupancy_histogram::414            0      0.00%    100.00% # Distribution of decode buffer occupancy (Unspecified)
board.processor.cores7.core.cc_buffer.execute_buffer_occupancy_histogram::415            0      0.00%    100.00% # Distribution of decode buffer occupancy (Unspecified)
board.processor.cores7.core.cc_buffer.execute_buffer_occupancy_histogram::416            0      0.00%    100.00% # Distribution of decode buffer occupancy (Unspecified)
board.processor.cores7.core.cc_buffer.execute_buffer_occupancy_histogram::417            0      0.00%    100.00% # Distribution of decode buffer occupancy (Unspecified)
board.processor.cores7.core.cc_buffer.execute_buffer_occupancy_histogram::418            0      0.00%    100.00% # Distribution of decode buffer occupancy (Unspecified)
board.processor.cores7.core.cc_buffer.execute_buffer_occupancy_histogram::419            0      0.00%    100.00% # Distribution of decode buffer occupancy (Unspecified)
board.processor.cores7.core.cc_buffer.execute_buffer_occupancy_histogram::420            0      0.00%    100.00% # Distribution of decode buffer occupancy (Unspecified)
board.processor.cores7.core.cc_buffer.execute_buffer_occupancy_histogram::421            0      0.00%    100.00% # Distribution of decode buffer occupancy (Unspecified)
board.processor.cores7.core.cc_buffer.execute_buffer_occupancy_histogram::422            0      0.00%    100.00% # Distribution of decode buffer occupancy (Unspecified)
board.processor.cores7.core.cc_buffer.execute_buffer_occupancy_histogram::423            0      0.00%    100.00% # Distribution of decode buffer occupancy (Unspecified)
board.processor.cores7.core.cc_buffer.execute_buffer_occupancy_histogram::424            0      0.00%    100.00% # Distribution of decode buffer occupancy (Unspecified)
board.processor.cores7.core.cc_buffer.execute_buffer_occupancy_histogram::425            0      0.00%    100.00% # Distribution of decode buffer occupancy (Unspecified)
board.processor.cores7.core.cc_buffer.execute_buffer_occupancy_histogram::426            0      0.00%    100.00% # Distribution of decode buffer occupancy (Unspecified)
board.processor.cores7.core.cc_buffer.execute_buffer_occupancy_histogram::427            0      0.00%    100.00% # Distribution of decode buffer occupancy (Unspecified)
board.processor.cores7.core.cc_buffer.execute_buffer_occupancy_histogram::428            0      0.00%    100.00% # Distribution of decode buffer occupancy (Unspecified)
board.processor.cores7.core.cc_buffer.execute_buffer_occupancy_histogram::429            0      0.00%    100.00% # Distribution of decode buffer occupancy (Unspecified)
board.processor.cores7.core.cc_buffer.execute_buffer_occupancy_histogram::430            0      0.00%    100.00% # Distribution of decode buffer occupancy (Unspecified)
board.processor.cores7.core.cc_buffer.execute_buffer_occupancy_histogram::431            0      0.00%    100.00% # Distribution of decode buffer occupancy (Unspecified)
board.processor.cores7.core.cc_buffer.execute_buffer_occupancy_histogram::432            0      0.00%    100.00% # Distribution of decode buffer occupancy (Unspecified)
board.processor.cores7.core.cc_buffer.execute_buffer_occupancy_histogram::433            0      0.00%    100.00% # Distribution of decode buffer occupancy (Unspecified)
board.processor.cores7.core.cc_buffer.execute_buffer_occupancy_histogram::434            0      0.00%    100.00% # Distribution of decode buffer occupancy (Unspecified)
board.processor.cores7.core.cc_buffer.execute_buffer_occupancy_histogram::435            0      0.00%    100.00% # Distribution of decode buffer occupancy (Unspecified)
board.processor.cores7.core.cc_buffer.execute_buffer_occupancy_histogram::436            0      0.00%    100.00% # Distribution of decode buffer occupancy (Unspecified)
board.processor.cores7.core.cc_buffer.execute_buffer_occupancy_histogram::437            0      0.00%    100.00% # Distribution of decode buffer occupancy (Unspecified)
board.processor.cores7.core.cc_buffer.execute_buffer_occupancy_histogram::438            0      0.00%    100.00% # Distribution of decode buffer occupancy (Unspecified)
board.processor.cores7.core.cc_buffer.execute_buffer_occupancy_histogram::439            0      0.00%    100.00% # Distribution of decode buffer occupancy (Unspecified)
board.processor.cores7.core.cc_buffer.execute_buffer_occupancy_histogram::440            0      0.00%    100.00% # Distribution of decode buffer occupancy (Unspecified)
board.processor.cores7.core.cc_buffer.execute_buffer_occupancy_histogram::441            0      0.00%    100.00% # Distribution of decode buffer occupancy (Unspecified)
board.processor.cores7.core.cc_buffer.execute_buffer_occupancy_histogram::442            0      0.00%    100.00% # Distribution of decode buffer occupancy (Unspecified)
board.processor.cores7.core.cc_buffer.execute_buffer_occupancy_histogram::443            0      0.00%    100.00% # Distribution of decode buffer occupancy (Unspecified)
board.processor.cores7.core.cc_buffer.execute_buffer_occupancy_histogram::444            0      0.00%    100.00% # Distribution of decode buffer occupancy (Unspecified)
board.processor.cores7.core.cc_buffer.execute_buffer_occupancy_histogram::445            0      0.00%    100.00% # Distribution of decode buffer occupancy (Unspecified)
board.processor.cores7.core.cc_buffer.execute_buffer_occupancy_histogram::446            0      0.00%    100.00% # Distribution of decode buffer occupancy (Unspecified)
board.processor.cores7.core.cc_buffer.execute_buffer_occupancy_histogram::447            0      0.00%    100.00% # Distribution of decode buffer occupancy (Unspecified)
board.processor.cores7.core.cc_buffer.execute_buffer_occupancy_histogram::448            0      0.00%    100.00% # Distribution of decode buffer occupancy (Unspecified)
board.processor.cores7.core.cc_buffer.execute_buffer_occupancy_histogram::449            0      0.00%    100.00% # Distribution of decode buffer occupancy (Unspecified)
board.processor.cores7.core.cc_buffer.execute_buffer_occupancy_histogram::450            0      0.00%    100.00% # Distribution of decode buffer occupancy (Unspecified)
board.processor.cores7.core.cc_buffer.execute_buffer_occupancy_histogram::451            0      0.00%    100.00% # Distribution of decode buffer occupancy (Unspecified)
board.processor.cores7.core.cc_buffer.execute_buffer_occupancy_histogram::452            0      0.00%    100.00% # Distribution of decode buffer occupancy (Unspecified)
board.processor.cores7.core.cc_buffer.execute_buffer_occupancy_histogram::453            0      0.00%    100.00% # Distribution of decode buffer occupancy (Unspecified)
board.processor.cores7.core.cc_buffer.execute_buffer_occupancy_histogram::454            0      0.00%    100.00% # Distribution of decode buffer occupancy (Unspecified)
board.processor.cores7.core.cc_buffer.execute_buffer_occupancy_histogram::455            0      0.00%    100.00% # Distribution of decode buffer occupancy (Unspecified)
board.processor.cores7.core.cc_buffer.execute_buffer_occupancy_histogram::456            0      0.00%    100.00% # Distribution of decode buffer occupancy (Unspecified)
board.processor.cores7.core.cc_buffer.execute_buffer_occupancy_histogram::457            0      0.00%    100.00% # Distribution of decode buffer occupancy (Unspecified)
board.processor.cores7.core.cc_buffer.execute_buffer_occupancy_histogram::458            0      0.00%    100.00% # Distribution of decode buffer occupancy (Unspecified)
board.processor.cores7.core.cc_buffer.execute_buffer_occupancy_histogram::459            0      0.00%    100.00% # Distribution of decode buffer occupancy (Unspecified)
board.processor.cores7.core.cc_buffer.execute_buffer_occupancy_histogram::460            0      0.00%    100.00% # Distribution of decode buffer occupancy (Unspecified)
board.processor.cores7.core.cc_buffer.execute_buffer_occupancy_histogram::461            0      0.00%    100.00% # Distribution of decode buffer occupancy (Unspecified)
board.processor.cores7.core.cc_buffer.execute_buffer_occupancy_histogram::462            0      0.00%    100.00% # Distribution of decode buffer occupancy (Unspecified)
board.processor.cores7.core.cc_buffer.execute_buffer_occupancy_histogram::463            0      0.00%    100.00% # Distribution of decode buffer occupancy (Unspecified)
board.processor.cores7.core.cc_buffer.execute_buffer_occupancy_histogram::464            0      0.00%    100.00% # Distribution of decode buffer occupancy (Unspecified)
board.processor.cores7.core.cc_buffer.execute_buffer_occupancy_histogram::465            0      0.00%    100.00% # Distribution of decode buffer occupancy (Unspecified)
board.processor.cores7.core.cc_buffer.execute_buffer_occupancy_histogram::466            0      0.00%    100.00% # Distribution of decode buffer occupancy (Unspecified)
board.processor.cores7.core.cc_buffer.execute_buffer_occupancy_histogram::467            0      0.00%    100.00% # Distribution of decode buffer occupancy (Unspecified)
board.processor.cores7.core.cc_buffer.execute_buffer_occupancy_histogram::468            0      0.00%    100.00% # Distribution of decode buffer occupancy (Unspecified)
board.processor.cores7.core.cc_buffer.execute_buffer_occupancy_histogram::469            0      0.00%    100.00% # Distribution of decode buffer occupancy (Unspecified)
board.processor.cores7.core.cc_buffer.execute_buffer_occupancy_histogram::470            0      0.00%    100.00% # Distribution of decode buffer occupancy (Unspecified)
board.processor.cores7.core.cc_buffer.execute_buffer_occupancy_histogram::471            0      0.00%    100.00% # Distribution of decode buffer occupancy (Unspecified)
board.processor.cores7.core.cc_buffer.execute_buffer_occupancy_histogram::472            0      0.00%    100.00% # Distribution of decode buffer occupancy (Unspecified)
board.processor.cores7.core.cc_buffer.execute_buffer_occupancy_histogram::473            0      0.00%    100.00% # Distribution of decode buffer occupancy (Unspecified)
board.processor.cores7.core.cc_buffer.execute_buffer_occupancy_histogram::474            0      0.00%    100.00% # Distribution of decode buffer occupancy (Unspecified)
board.processor.cores7.core.cc_buffer.execute_buffer_occupancy_histogram::475            0      0.00%    100.00% # Distribution of decode buffer occupancy (Unspecified)
board.processor.cores7.core.cc_buffer.execute_buffer_occupancy_histogram::476            0      0.00%    100.00% # Distribution of decode buffer occupancy (Unspecified)
board.processor.cores7.core.cc_buffer.execute_buffer_occupancy_histogram::477            0      0.00%    100.00% # Distribution of decode buffer occupancy (Unspecified)
board.processor.cores7.core.cc_buffer.execute_buffer_occupancy_histogram::478            0      0.00%    100.00% # Distribution of decode buffer occupancy (Unspecified)
board.processor.cores7.core.cc_buffer.execute_buffer_occupancy_histogram::479            0      0.00%    100.00% # Distribution of decode buffer occupancy (Unspecified)
board.processor.cores7.core.cc_buffer.execute_buffer_occupancy_histogram::480            0      0.00%    100.00% # Distribution of decode buffer occupancy (Unspecified)
board.processor.cores7.core.cc_buffer.execute_buffer_occupancy_histogram::481            0      0.00%    100.00% # Distribution of decode buffer occupancy (Unspecified)
board.processor.cores7.core.cc_buffer.execute_buffer_occupancy_histogram::482            0      0.00%    100.00% # Distribution of decode buffer occupancy (Unspecified)
board.processor.cores7.core.cc_buffer.execute_buffer_occupancy_histogram::483            0      0.00%    100.00% # Distribution of decode buffer occupancy (Unspecified)
board.processor.cores7.core.cc_buffer.execute_buffer_occupancy_histogram::484            0      0.00%    100.00% # Distribution of decode buffer occupancy (Unspecified)
board.processor.cores7.core.cc_buffer.execute_buffer_occupancy_histogram::485            0      0.00%    100.00% # Distribution of decode buffer occupancy (Unspecified)
board.processor.cores7.core.cc_buffer.execute_buffer_occupancy_histogram::486            0      0.00%    100.00% # Distribution of decode buffer occupancy (Unspecified)
board.processor.cores7.core.cc_buffer.execute_buffer_occupancy_histogram::487            0      0.00%    100.00% # Distribution of decode buffer occupancy (Unspecified)
board.processor.cores7.core.cc_buffer.execute_buffer_occupancy_histogram::488            0      0.00%    100.00% # Distribution of decode buffer occupancy (Unspecified)
board.processor.cores7.core.cc_buffer.execute_buffer_occupancy_histogram::489            0      0.00%    100.00% # Distribution of decode buffer occupancy (Unspecified)
board.processor.cores7.core.cc_buffer.execute_buffer_occupancy_histogram::490            0      0.00%    100.00% # Distribution of decode buffer occupancy (Unspecified)
board.processor.cores7.core.cc_buffer.execute_buffer_occupancy_histogram::491            0      0.00%    100.00% # Distribution of decode buffer occupancy (Unspecified)
board.processor.cores7.core.cc_buffer.execute_buffer_occupancy_histogram::492            0      0.00%    100.00% # Distribution of decode buffer occupancy (Unspecified)
board.processor.cores7.core.cc_buffer.execute_buffer_occupancy_histogram::493            0      0.00%    100.00% # Distribution of decode buffer occupancy (Unspecified)
board.processor.cores7.core.cc_buffer.execute_buffer_occupancy_histogram::494            0      0.00%    100.00% # Distribution of decode buffer occupancy (Unspecified)
board.processor.cores7.core.cc_buffer.execute_buffer_occupancy_histogram::495            0      0.00%    100.00% # Distribution of decode buffer occupancy (Unspecified)
board.processor.cores7.core.cc_buffer.execute_buffer_occupancy_histogram::496            0      0.00%    100.00% # Distribution of decode buffer occupancy (Unspecified)
board.processor.cores7.core.cc_buffer.execute_buffer_occupancy_histogram::497            0      0.00%    100.00% # Distribution of decode buffer occupancy (Unspecified)
board.processor.cores7.core.cc_buffer.execute_buffer_occupancy_histogram::498            0      0.00%    100.00% # Distribution of decode buffer occupancy (Unspecified)
board.processor.cores7.core.cc_buffer.execute_buffer_occupancy_histogram::499            0      0.00%    100.00% # Distribution of decode buffer occupancy (Unspecified)
board.processor.cores7.core.cc_buffer.execute_buffer_occupancy_histogram::500            0      0.00%    100.00% # Distribution of decode buffer occupancy (Unspecified)
board.processor.cores7.core.cc_buffer.execute_buffer_occupancy_histogram::501            0      0.00%    100.00% # Distribution of decode buffer occupancy (Unspecified)
board.processor.cores7.core.cc_buffer.execute_buffer_occupancy_histogram::502            0      0.00%    100.00% # Distribution of decode buffer occupancy (Unspecified)
board.processor.cores7.core.cc_buffer.execute_buffer_occupancy_histogram::503            0      0.00%    100.00% # Distribution of decode buffer occupancy (Unspecified)
board.processor.cores7.core.cc_buffer.execute_buffer_occupancy_histogram::504            0      0.00%    100.00% # Distribution of decode buffer occupancy (Unspecified)
board.processor.cores7.core.cc_buffer.execute_buffer_occupancy_histogram::505            0      0.00%    100.00% # Distribution of decode buffer occupancy (Unspecified)
board.processor.cores7.core.cc_buffer.execute_buffer_occupancy_histogram::506            0      0.00%    100.00% # Distribution of decode buffer occupancy (Unspecified)
board.processor.cores7.core.cc_buffer.execute_buffer_occupancy_histogram::507            0      0.00%    100.00% # Distribution of decode buffer occupancy (Unspecified)
board.processor.cores7.core.cc_buffer.execute_buffer_occupancy_histogram::508            0      0.00%    100.00% # Distribution of decode buffer occupancy (Unspecified)
board.processor.cores7.core.cc_buffer.execute_buffer_occupancy_histogram::509            0      0.00%    100.00% # Distribution of decode buffer occupancy (Unspecified)
board.processor.cores7.core.cc_buffer.execute_buffer_occupancy_histogram::510            0      0.00%    100.00% # Distribution of decode buffer occupancy (Unspecified)
board.processor.cores7.core.cc_buffer.execute_buffer_occupancy_histogram::511            0      0.00%    100.00% # Distribution of decode buffer occupancy (Unspecified)
board.processor.cores7.core.cc_buffer.execute_buffer_occupancy_histogram::512            0      0.00%    100.00% # Distribution of decode buffer occupancy (Unspecified)
board.processor.cores7.core.cc_buffer.execute_buffer_occupancy_histogram::overflows            0      0.00%    100.00% # Distribution of decode buffer occupancy (Unspecified)
board.processor.cores7.core.cc_buffer.execute_buffer_occupancy_histogram::min_value            0                       # Distribution of decode buffer occupancy (Unspecified)
board.processor.cores7.core.cc_buffer.execute_buffer_occupancy_histogram::max_value            0                       # Distribution of decode buffer occupancy (Unspecified)
board.processor.cores7.core.cc_buffer.execute_buffer_occupancy_histogram::total        15907                       # Distribution of decode buffer occupancy (Unspecified)
board.processor.cores7.core.cc_buffer.execute_old_inst_not_finished            0                       # Number of times execute buffer paused due to oldest insts not being finished executing (Unspecified)
board.processor.cores7.core.cc_buffer.num_fault_insts            0                       # Number of fault insts executed (Unspecified)
board.processor.cores7.core.cc_buffer.num_unknown_insts            0                       # Number of unknown insts executed (Unspecified)
board.processor.cores7.core.cc_buffer.ooo_stall_signals            0                       # Number of cycles stalled due to buffer (Unspecified)
board.processor.cores7.core.cc_buffer.regfile_bandwidth_reached            0                       # Number of times execute buffer paused due to bandwidth reached (Unspecified)
board.processor.cores7.core.cc_buffer.regfile_insts_processed            0                       # Number of insts regfile has processes (Unspecified)

---------- End Simulation Statistics   ----------
