
---------- Begin Simulation Statistics ----------
simSeconds                                   0.000083                       # Number of seconds simulated (Second)
simTicks                                     82543041                       # Number of ticks simulated (Tick)
finalTick                                    82543041                       # Number of ticks from beginning of simulation (restored from checkpoints and never reset) (Tick)
simFreq                                  1000000000000                       # The number of ticks per simulated second ((Tick/Second))
hostSeconds                                      5.76                       # Real time elapsed on the host (Second)
hostTickRate                                 14333512                       # The number of ticks simulated per host second (ticks/s) ((Tick/Second))
hostMemory                                    8927068                       # Number of bytes of host memory used (Byte)
simInsts                                       190807                       # Number of instructions simulated (Count)
simOps                                         326533                       # Number of ops (including micro ops) simulated (Count)
hostInstRate                                    33132                       # Simulator instruction rate (inst/s) ((Count/Second))
hostOpRate                                      56700                       # Simulator op (including micro ops) rate (op/s) ((Count/Second))
board.cache_hierarchy.cc_l3cache.demandHits::cache_hierarchy.l1dcaches0.prefetcher           13                       # number of demand (read+write) hits (Count)
board.cache_hierarchy.cc_l3cache.demandHits::cache_hierarchy.l2cache.prefetcher           10                       # number of demand (read+write) hits (Count)
board.cache_hierarchy.cc_l3cache.demandHits::processor.cores0.core.data           13                       # number of demand (read+write) hits (Count)
board.cache_hierarchy.cc_l3cache.demandHits::processor.cores0.core.cc_buffer        25088                       # number of demand (read+write) hits (Count)
board.cache_hierarchy.cc_l3cache.demandHits::processor.cores1.core.cc_buffer         4933                       # number of demand (read+write) hits (Count)
board.cache_hierarchy.cc_l3cache.demandHits::processor.cores2.core.cc_buffer         4545                       # number of demand (read+write) hits (Count)
board.cache_hierarchy.cc_l3cache.demandHits::processor.cores3.core.cc_buffer         4269                       # number of demand (read+write) hits (Count)
board.cache_hierarchy.cc_l3cache.demandHits::processor.cores4.core.cc_buffer         3988                       # number of demand (read+write) hits (Count)
board.cache_hierarchy.cc_l3cache.demandHits::processor.cores5.core.cc_buffer         3733                       # number of demand (read+write) hits (Count)
board.cache_hierarchy.cc_l3cache.demandHits::processor.cores6.core.cc_buffer         3550                       # number of demand (read+write) hits (Count)
board.cache_hierarchy.cc_l3cache.demandHits::processor.cores7.core.cc_buffer         3148                       # number of demand (read+write) hits (Count)
board.cache_hierarchy.cc_l3cache.demandHits::total        53290                       # number of demand (read+write) hits (Count)
board.cache_hierarchy.cc_l3cache.overallHits::cache_hierarchy.l1dcaches0.prefetcher           13                       # number of overall hits (Count)
board.cache_hierarchy.cc_l3cache.overallHits::cache_hierarchy.l2cache.prefetcher           10                       # number of overall hits (Count)
board.cache_hierarchy.cc_l3cache.overallHits::processor.cores0.core.data           13                       # number of overall hits (Count)
board.cache_hierarchy.cc_l3cache.overallHits::processor.cores0.core.cc_buffer        25088                       # number of overall hits (Count)
board.cache_hierarchy.cc_l3cache.overallHits::processor.cores1.core.cc_buffer         4933                       # number of overall hits (Count)
board.cache_hierarchy.cc_l3cache.overallHits::processor.cores2.core.cc_buffer         4545                       # number of overall hits (Count)
board.cache_hierarchy.cc_l3cache.overallHits::processor.cores3.core.cc_buffer         4269                       # number of overall hits (Count)
board.cache_hierarchy.cc_l3cache.overallHits::processor.cores4.core.cc_buffer         3988                       # number of overall hits (Count)
board.cache_hierarchy.cc_l3cache.overallHits::processor.cores5.core.cc_buffer         3733                       # number of overall hits (Count)
board.cache_hierarchy.cc_l3cache.overallHits::processor.cores6.core.cc_buffer         3550                       # number of overall hits (Count)
board.cache_hierarchy.cc_l3cache.overallHits::processor.cores7.core.cc_buffer         3148                       # number of overall hits (Count)
board.cache_hierarchy.cc_l3cache.overallHits::total        53290                       # number of overall hits (Count)
board.cache_hierarchy.cc_l3cache.demandMisses::cache_hierarchy.l1dcaches0.prefetcher           65                       # number of demand (read+write) misses (Count)
board.cache_hierarchy.cc_l3cache.demandMisses::cache_hierarchy.l1dcaches7.prefetcher            1                       # number of demand (read+write) misses (Count)
board.cache_hierarchy.cc_l3cache.demandMisses::cache_hierarchy.l2cache.prefetcher          111                       # number of demand (read+write) misses (Count)
board.cache_hierarchy.cc_l3cache.demandMisses::processor.cores0.core.inst          951                       # number of demand (read+write) misses (Count)
board.cache_hierarchy.cc_l3cache.demandMisses::processor.cores0.core.data          461                       # number of demand (read+write) misses (Count)
board.cache_hierarchy.cc_l3cache.demandMisses::processor.cores1.core.inst           19                       # number of demand (read+write) misses (Count)
board.cache_hierarchy.cc_l3cache.demandMisses::processor.cores1.core.data            6                       # number of demand (read+write) misses (Count)
board.cache_hierarchy.cc_l3cache.demandMisses::processor.cores2.core.inst            5                       # number of demand (read+write) misses (Count)
board.cache_hierarchy.cc_l3cache.demandMisses::processor.cores2.core.data            7                       # number of demand (read+write) misses (Count)
board.cache_hierarchy.cc_l3cache.demandMisses::processor.cores3.core.inst            2                       # number of demand (read+write) misses (Count)
board.cache_hierarchy.cc_l3cache.demandMisses::processor.cores3.core.data            6                       # number of demand (read+write) misses (Count)
board.cache_hierarchy.cc_l3cache.demandMisses::processor.cores4.core.data            6                       # number of demand (read+write) misses (Count)
board.cache_hierarchy.cc_l3cache.demandMisses::processor.cores5.core.data            6                       # number of demand (read+write) misses (Count)
board.cache_hierarchy.cc_l3cache.demandMisses::processor.cores6.core.inst            5                       # number of demand (read+write) misses (Count)
board.cache_hierarchy.cc_l3cache.demandMisses::processor.cores6.core.data            6                       # number of demand (read+write) misses (Count)
board.cache_hierarchy.cc_l3cache.demandMisses::processor.cores7.core.inst            2                       # number of demand (read+write) misses (Count)
board.cache_hierarchy.cc_l3cache.demandMisses::processor.cores7.core.data            6                       # number of demand (read+write) misses (Count)
board.cache_hierarchy.cc_l3cache.demandMisses::processor.cores0.core.cc_buffer         1214                       # number of demand (read+write) misses (Count)
board.cache_hierarchy.cc_l3cache.demandMisses::processor.cores1.core.cc_buffer           11                       # number of demand (read+write) misses (Count)
board.cache_hierarchy.cc_l3cache.demandMisses::processor.cores2.core.cc_buffer           18                       # number of demand (read+write) misses (Count)
board.cache_hierarchy.cc_l3cache.demandMisses::processor.cores3.core.cc_buffer           14                       # number of demand (read+write) misses (Count)
board.cache_hierarchy.cc_l3cache.demandMisses::processor.cores4.core.cc_buffer           17                       # number of demand (read+write) misses (Count)
board.cache_hierarchy.cc_l3cache.demandMisses::processor.cores5.core.cc_buffer           18                       # number of demand (read+write) misses (Count)
board.cache_hierarchy.cc_l3cache.demandMisses::processor.cores6.core.cc_buffer           14                       # number of demand (read+write) misses (Count)
board.cache_hierarchy.cc_l3cache.demandMisses::processor.cores7.core.cc_buffer           18                       # number of demand (read+write) misses (Count)
board.cache_hierarchy.cc_l3cache.demandMisses::total         2989                       # number of demand (read+write) misses (Count)
board.cache_hierarchy.cc_l3cache.overallMisses::cache_hierarchy.l1dcaches0.prefetcher           65                       # number of overall misses (Count)
board.cache_hierarchy.cc_l3cache.overallMisses::cache_hierarchy.l1dcaches7.prefetcher            1                       # number of overall misses (Count)
board.cache_hierarchy.cc_l3cache.overallMisses::cache_hierarchy.l2cache.prefetcher          111                       # number of overall misses (Count)
board.cache_hierarchy.cc_l3cache.overallMisses::processor.cores0.core.inst          951                       # number of overall misses (Count)
board.cache_hierarchy.cc_l3cache.overallMisses::processor.cores0.core.data          461                       # number of overall misses (Count)
board.cache_hierarchy.cc_l3cache.overallMisses::processor.cores1.core.inst           19                       # number of overall misses (Count)
board.cache_hierarchy.cc_l3cache.overallMisses::processor.cores1.core.data            6                       # number of overall misses (Count)
board.cache_hierarchy.cc_l3cache.overallMisses::processor.cores2.core.inst            5                       # number of overall misses (Count)
board.cache_hierarchy.cc_l3cache.overallMisses::processor.cores2.core.data            7                       # number of overall misses (Count)
board.cache_hierarchy.cc_l3cache.overallMisses::processor.cores3.core.inst            2                       # number of overall misses (Count)
board.cache_hierarchy.cc_l3cache.overallMisses::processor.cores3.core.data            6                       # number of overall misses (Count)
board.cache_hierarchy.cc_l3cache.overallMisses::processor.cores4.core.data            6                       # number of overall misses (Count)
board.cache_hierarchy.cc_l3cache.overallMisses::processor.cores5.core.data            6                       # number of overall misses (Count)
board.cache_hierarchy.cc_l3cache.overallMisses::processor.cores6.core.inst            5                       # number of overall misses (Count)
board.cache_hierarchy.cc_l3cache.overallMisses::processor.cores6.core.data            6                       # number of overall misses (Count)
board.cache_hierarchy.cc_l3cache.overallMisses::processor.cores7.core.inst            2                       # number of overall misses (Count)
board.cache_hierarchy.cc_l3cache.overallMisses::processor.cores7.core.data            6                       # number of overall misses (Count)
board.cache_hierarchy.cc_l3cache.overallMisses::processor.cores0.core.cc_buffer         1214                       # number of overall misses (Count)
board.cache_hierarchy.cc_l3cache.overallMisses::processor.cores1.core.cc_buffer           11                       # number of overall misses (Count)
board.cache_hierarchy.cc_l3cache.overallMisses::processor.cores2.core.cc_buffer           18                       # number of overall misses (Count)
board.cache_hierarchy.cc_l3cache.overallMisses::processor.cores3.core.cc_buffer           14                       # number of overall misses (Count)
board.cache_hierarchy.cc_l3cache.overallMisses::processor.cores4.core.cc_buffer           17                       # number of overall misses (Count)
board.cache_hierarchy.cc_l3cache.overallMisses::processor.cores5.core.cc_buffer           18                       # number of overall misses (Count)
board.cache_hierarchy.cc_l3cache.overallMisses::processor.cores6.core.cc_buffer           14                       # number of overall misses (Count)
board.cache_hierarchy.cc_l3cache.overallMisses::processor.cores7.core.cc_buffer           18                       # number of overall misses (Count)
board.cache_hierarchy.cc_l3cache.overallMisses::total         2989                       # number of overall misses (Count)
board.cache_hierarchy.cc_l3cache.demandMissLatency::cache_hierarchy.l1dcaches0.prefetcher      5956377                       # number of demand (read+write) miss ticks (Tick)
board.cache_hierarchy.cc_l3cache.demandMissLatency::cache_hierarchy.l1dcaches7.prefetcher        73593                       # number of demand (read+write) miss ticks (Tick)
board.cache_hierarchy.cc_l3cache.demandMissLatency::cache_hierarchy.l2cache.prefetcher      8403222                       # number of demand (read+write) miss ticks (Tick)
board.cache_hierarchy.cc_l3cache.demandMissLatency::processor.cores0.core.inst     53618328                       # number of demand (read+write) miss ticks (Tick)
board.cache_hierarchy.cc_l3cache.demandMissLatency::processor.cores0.core.data     28565073                       # number of demand (read+write) miss ticks (Tick)
board.cache_hierarchy.cc_l3cache.demandMissLatency::processor.cores1.core.inst      1102230                       # number of demand (read+write) miss ticks (Tick)
board.cache_hierarchy.cc_l3cache.demandMissLatency::processor.cores1.core.data       402930                       # number of demand (read+write) miss ticks (Tick)
board.cache_hierarchy.cc_l3cache.demandMissLatency::processor.cores2.core.inst       327006                       # number of demand (read+write) miss ticks (Tick)
board.cache_hierarchy.cc_l3cache.demandMissLatency::processor.cores2.core.data       404595                       # number of demand (read+write) miss ticks (Tick)
board.cache_hierarchy.cc_l3cache.demandMissLatency::processor.cores3.core.inst       124542                       # number of demand (read+write) miss ticks (Tick)
board.cache_hierarchy.cc_l3cache.demandMissLatency::processor.cores3.core.data       292041                       # number of demand (read+write) miss ticks (Tick)
board.cache_hierarchy.cc_l3cache.demandMissLatency::processor.cores4.core.data       302031                       # number of demand (read+write) miss ticks (Tick)
board.cache_hierarchy.cc_l3cache.demandMissLatency::processor.cores5.core.data       318348                       # number of demand (read+write) miss ticks (Tick)
board.cache_hierarchy.cc_l3cache.demandMissLatency::processor.cores6.core.inst       293040                       # number of demand (read+write) miss ticks (Tick)
board.cache_hierarchy.cc_l3cache.demandMissLatency::processor.cores6.core.data       295704                       # number of demand (read+write) miss ticks (Tick)
board.cache_hierarchy.cc_l3cache.demandMissLatency::processor.cores7.core.inst       133533                       # number of demand (read+write) miss ticks (Tick)
board.cache_hierarchy.cc_l3cache.demandMissLatency::processor.cores7.core.data       277722                       # number of demand (read+write) miss ticks (Tick)
board.cache_hierarchy.cc_l3cache.demandMissLatency::total    100890315                       # number of demand (read+write) miss ticks (Tick)
board.cache_hierarchy.cc_l3cache.overallMissLatency::cache_hierarchy.l1dcaches0.prefetcher      5956377                       # number of overall miss ticks (Tick)
board.cache_hierarchy.cc_l3cache.overallMissLatency::cache_hierarchy.l1dcaches7.prefetcher        73593                       # number of overall miss ticks (Tick)
board.cache_hierarchy.cc_l3cache.overallMissLatency::cache_hierarchy.l2cache.prefetcher      8403222                       # number of overall miss ticks (Tick)
board.cache_hierarchy.cc_l3cache.overallMissLatency::processor.cores0.core.inst     53618328                       # number of overall miss ticks (Tick)
board.cache_hierarchy.cc_l3cache.overallMissLatency::processor.cores0.core.data     28565073                       # number of overall miss ticks (Tick)
board.cache_hierarchy.cc_l3cache.overallMissLatency::processor.cores1.core.inst      1102230                       # number of overall miss ticks (Tick)
board.cache_hierarchy.cc_l3cache.overallMissLatency::processor.cores1.core.data       402930                       # number of overall miss ticks (Tick)
board.cache_hierarchy.cc_l3cache.overallMissLatency::processor.cores2.core.inst       327006                       # number of overall miss ticks (Tick)
board.cache_hierarchy.cc_l3cache.overallMissLatency::processor.cores2.core.data       404595                       # number of overall miss ticks (Tick)
board.cache_hierarchy.cc_l3cache.overallMissLatency::processor.cores3.core.inst       124542                       # number of overall miss ticks (Tick)
board.cache_hierarchy.cc_l3cache.overallMissLatency::processor.cores3.core.data       292041                       # number of overall miss ticks (Tick)
board.cache_hierarchy.cc_l3cache.overallMissLatency::processor.cores4.core.data       302031                       # number of overall miss ticks (Tick)
board.cache_hierarchy.cc_l3cache.overallMissLatency::processor.cores5.core.data       318348                       # number of overall miss ticks (Tick)
board.cache_hierarchy.cc_l3cache.overallMissLatency::processor.cores6.core.inst       293040                       # number of overall miss ticks (Tick)
board.cache_hierarchy.cc_l3cache.overallMissLatency::processor.cores6.core.data       295704                       # number of overall miss ticks (Tick)
board.cache_hierarchy.cc_l3cache.overallMissLatency::processor.cores7.core.inst       133533                       # number of overall miss ticks (Tick)
board.cache_hierarchy.cc_l3cache.overallMissLatency::processor.cores7.core.data       277722                       # number of overall miss ticks (Tick)
board.cache_hierarchy.cc_l3cache.overallMissLatency::total    100890315                       # number of overall miss ticks (Tick)
board.cache_hierarchy.cc_l3cache.demandAccesses::cache_hierarchy.l1dcaches0.prefetcher           78                       # number of demand (read+write) accesses (Count)
board.cache_hierarchy.cc_l3cache.demandAccesses::cache_hierarchy.l1dcaches7.prefetcher            1                       # number of demand (read+write) accesses (Count)
board.cache_hierarchy.cc_l3cache.demandAccesses::cache_hierarchy.l2cache.prefetcher          121                       # number of demand (read+write) accesses (Count)
board.cache_hierarchy.cc_l3cache.demandAccesses::processor.cores0.core.inst          951                       # number of demand (read+write) accesses (Count)
board.cache_hierarchy.cc_l3cache.demandAccesses::processor.cores0.core.data          474                       # number of demand (read+write) accesses (Count)
board.cache_hierarchy.cc_l3cache.demandAccesses::processor.cores1.core.inst           19                       # number of demand (read+write) accesses (Count)
board.cache_hierarchy.cc_l3cache.demandAccesses::processor.cores1.core.data            6                       # number of demand (read+write) accesses (Count)
board.cache_hierarchy.cc_l3cache.demandAccesses::processor.cores2.core.inst            5                       # number of demand (read+write) accesses (Count)
board.cache_hierarchy.cc_l3cache.demandAccesses::processor.cores2.core.data            7                       # number of demand (read+write) accesses (Count)
board.cache_hierarchy.cc_l3cache.demandAccesses::processor.cores3.core.inst            2                       # number of demand (read+write) accesses (Count)
board.cache_hierarchy.cc_l3cache.demandAccesses::processor.cores3.core.data            6                       # number of demand (read+write) accesses (Count)
board.cache_hierarchy.cc_l3cache.demandAccesses::processor.cores4.core.data            6                       # number of demand (read+write) accesses (Count)
board.cache_hierarchy.cc_l3cache.demandAccesses::processor.cores5.core.data            6                       # number of demand (read+write) accesses (Count)
board.cache_hierarchy.cc_l3cache.demandAccesses::processor.cores6.core.inst            5                       # number of demand (read+write) accesses (Count)
board.cache_hierarchy.cc_l3cache.demandAccesses::processor.cores6.core.data            6                       # number of demand (read+write) accesses (Count)
board.cache_hierarchy.cc_l3cache.demandAccesses::processor.cores7.core.inst            2                       # number of demand (read+write) accesses (Count)
board.cache_hierarchy.cc_l3cache.demandAccesses::processor.cores7.core.data            6                       # number of demand (read+write) accesses (Count)
board.cache_hierarchy.cc_l3cache.demandAccesses::processor.cores0.core.cc_buffer        26302                       # number of demand (read+write) accesses (Count)
board.cache_hierarchy.cc_l3cache.demandAccesses::processor.cores1.core.cc_buffer         4944                       # number of demand (read+write) accesses (Count)
board.cache_hierarchy.cc_l3cache.demandAccesses::processor.cores2.core.cc_buffer         4563                       # number of demand (read+write) accesses (Count)
board.cache_hierarchy.cc_l3cache.demandAccesses::processor.cores3.core.cc_buffer         4283                       # number of demand (read+write) accesses (Count)
board.cache_hierarchy.cc_l3cache.demandAccesses::processor.cores4.core.cc_buffer         4005                       # number of demand (read+write) accesses (Count)
board.cache_hierarchy.cc_l3cache.demandAccesses::processor.cores5.core.cc_buffer         3751                       # number of demand (read+write) accesses (Count)
board.cache_hierarchy.cc_l3cache.demandAccesses::processor.cores6.core.cc_buffer         3564                       # number of demand (read+write) accesses (Count)
board.cache_hierarchy.cc_l3cache.demandAccesses::processor.cores7.core.cc_buffer         3166                       # number of demand (read+write) accesses (Count)
board.cache_hierarchy.cc_l3cache.demandAccesses::total        56279                       # number of demand (read+write) accesses (Count)
board.cache_hierarchy.cc_l3cache.overallAccesses::cache_hierarchy.l1dcaches0.prefetcher           78                       # number of overall (read+write) accesses (Count)
board.cache_hierarchy.cc_l3cache.overallAccesses::cache_hierarchy.l1dcaches7.prefetcher            1                       # number of overall (read+write) accesses (Count)
board.cache_hierarchy.cc_l3cache.overallAccesses::cache_hierarchy.l2cache.prefetcher          121                       # number of overall (read+write) accesses (Count)
board.cache_hierarchy.cc_l3cache.overallAccesses::processor.cores0.core.inst          951                       # number of overall (read+write) accesses (Count)
board.cache_hierarchy.cc_l3cache.overallAccesses::processor.cores0.core.data          474                       # number of overall (read+write) accesses (Count)
board.cache_hierarchy.cc_l3cache.overallAccesses::processor.cores1.core.inst           19                       # number of overall (read+write) accesses (Count)
board.cache_hierarchy.cc_l3cache.overallAccesses::processor.cores1.core.data            6                       # number of overall (read+write) accesses (Count)
board.cache_hierarchy.cc_l3cache.overallAccesses::processor.cores2.core.inst            5                       # number of overall (read+write) accesses (Count)
board.cache_hierarchy.cc_l3cache.overallAccesses::processor.cores2.core.data            7                       # number of overall (read+write) accesses (Count)
board.cache_hierarchy.cc_l3cache.overallAccesses::processor.cores3.core.inst            2                       # number of overall (read+write) accesses (Count)
board.cache_hierarchy.cc_l3cache.overallAccesses::processor.cores3.core.data            6                       # number of overall (read+write) accesses (Count)
board.cache_hierarchy.cc_l3cache.overallAccesses::processor.cores4.core.data            6                       # number of overall (read+write) accesses (Count)
board.cache_hierarchy.cc_l3cache.overallAccesses::processor.cores5.core.data            6                       # number of overall (read+write) accesses (Count)
board.cache_hierarchy.cc_l3cache.overallAccesses::processor.cores6.core.inst            5                       # number of overall (read+write) accesses (Count)
board.cache_hierarchy.cc_l3cache.overallAccesses::processor.cores6.core.data            6                       # number of overall (read+write) accesses (Count)
board.cache_hierarchy.cc_l3cache.overallAccesses::processor.cores7.core.inst            2                       # number of overall (read+write) accesses (Count)
board.cache_hierarchy.cc_l3cache.overallAccesses::processor.cores7.core.data            6                       # number of overall (read+write) accesses (Count)
board.cache_hierarchy.cc_l3cache.overallAccesses::processor.cores0.core.cc_buffer        26302                       # number of overall (read+write) accesses (Count)
board.cache_hierarchy.cc_l3cache.overallAccesses::processor.cores1.core.cc_buffer         4944                       # number of overall (read+write) accesses (Count)
board.cache_hierarchy.cc_l3cache.overallAccesses::processor.cores2.core.cc_buffer         4563                       # number of overall (read+write) accesses (Count)
board.cache_hierarchy.cc_l3cache.overallAccesses::processor.cores3.core.cc_buffer         4283                       # number of overall (read+write) accesses (Count)
board.cache_hierarchy.cc_l3cache.overallAccesses::processor.cores4.core.cc_buffer         4005                       # number of overall (read+write) accesses (Count)
board.cache_hierarchy.cc_l3cache.overallAccesses::processor.cores5.core.cc_buffer         3751                       # number of overall (read+write) accesses (Count)
board.cache_hierarchy.cc_l3cache.overallAccesses::processor.cores6.core.cc_buffer         3564                       # number of overall (read+write) accesses (Count)
board.cache_hierarchy.cc_l3cache.overallAccesses::processor.cores7.core.cc_buffer         3166                       # number of overall (read+write) accesses (Count)
board.cache_hierarchy.cc_l3cache.overallAccesses::total        56279                       # number of overall (read+write) accesses (Count)
board.cache_hierarchy.cc_l3cache.demandMissRate::cache_hierarchy.l1dcaches0.prefetcher     0.833333                       # miss rate for demand accesses (Ratio)
board.cache_hierarchy.cc_l3cache.demandMissRate::cache_hierarchy.l1dcaches7.prefetcher            1                       # miss rate for demand accesses (Ratio)
board.cache_hierarchy.cc_l3cache.demandMissRate::cache_hierarchy.l2cache.prefetcher     0.917355                       # miss rate for demand accesses (Ratio)
board.cache_hierarchy.cc_l3cache.demandMissRate::processor.cores0.core.inst            1                       # miss rate for demand accesses (Ratio)
board.cache_hierarchy.cc_l3cache.demandMissRate::processor.cores0.core.data     0.972574                       # miss rate for demand accesses (Ratio)
board.cache_hierarchy.cc_l3cache.demandMissRate::processor.cores1.core.inst            1                       # miss rate for demand accesses (Ratio)
board.cache_hierarchy.cc_l3cache.demandMissRate::processor.cores1.core.data            1                       # miss rate for demand accesses (Ratio)
board.cache_hierarchy.cc_l3cache.demandMissRate::processor.cores2.core.inst            1                       # miss rate for demand accesses (Ratio)
board.cache_hierarchy.cc_l3cache.demandMissRate::processor.cores2.core.data            1                       # miss rate for demand accesses (Ratio)
board.cache_hierarchy.cc_l3cache.demandMissRate::processor.cores3.core.inst            1                       # miss rate for demand accesses (Ratio)
board.cache_hierarchy.cc_l3cache.demandMissRate::processor.cores3.core.data            1                       # miss rate for demand accesses (Ratio)
board.cache_hierarchy.cc_l3cache.demandMissRate::processor.cores4.core.data            1                       # miss rate for demand accesses (Ratio)
board.cache_hierarchy.cc_l3cache.demandMissRate::processor.cores5.core.data            1                       # miss rate for demand accesses (Ratio)
board.cache_hierarchy.cc_l3cache.demandMissRate::processor.cores6.core.inst            1                       # miss rate for demand accesses (Ratio)
board.cache_hierarchy.cc_l3cache.demandMissRate::processor.cores6.core.data            1                       # miss rate for demand accesses (Ratio)
board.cache_hierarchy.cc_l3cache.demandMissRate::processor.cores7.core.inst            1                       # miss rate for demand accesses (Ratio)
board.cache_hierarchy.cc_l3cache.demandMissRate::processor.cores7.core.data            1                       # miss rate for demand accesses (Ratio)
board.cache_hierarchy.cc_l3cache.demandMissRate::processor.cores0.core.cc_buffer     0.046156                       # miss rate for demand accesses (Ratio)
board.cache_hierarchy.cc_l3cache.demandMissRate::processor.cores1.core.cc_buffer     0.002225                       # miss rate for demand accesses (Ratio)
board.cache_hierarchy.cc_l3cache.demandMissRate::processor.cores2.core.cc_buffer     0.003945                       # miss rate for demand accesses (Ratio)
board.cache_hierarchy.cc_l3cache.demandMissRate::processor.cores3.core.cc_buffer     0.003269                       # miss rate for demand accesses (Ratio)
board.cache_hierarchy.cc_l3cache.demandMissRate::processor.cores4.core.cc_buffer     0.004245                       # miss rate for demand accesses (Ratio)
board.cache_hierarchy.cc_l3cache.demandMissRate::processor.cores5.core.cc_buffer     0.004799                       # miss rate for demand accesses (Ratio)
board.cache_hierarchy.cc_l3cache.demandMissRate::processor.cores6.core.cc_buffer     0.003928                       # miss rate for demand accesses (Ratio)
board.cache_hierarchy.cc_l3cache.demandMissRate::processor.cores7.core.cc_buffer     0.005685                       # miss rate for demand accesses (Ratio)
board.cache_hierarchy.cc_l3cache.demandMissRate::total     0.053110                       # miss rate for demand accesses (Ratio)
board.cache_hierarchy.cc_l3cache.overallMissRate::cache_hierarchy.l1dcaches0.prefetcher     0.833333                       # miss rate for overall accesses (Ratio)
board.cache_hierarchy.cc_l3cache.overallMissRate::cache_hierarchy.l1dcaches7.prefetcher            1                       # miss rate for overall accesses (Ratio)
board.cache_hierarchy.cc_l3cache.overallMissRate::cache_hierarchy.l2cache.prefetcher     0.917355                       # miss rate for overall accesses (Ratio)
board.cache_hierarchy.cc_l3cache.overallMissRate::processor.cores0.core.inst            1                       # miss rate for overall accesses (Ratio)
board.cache_hierarchy.cc_l3cache.overallMissRate::processor.cores0.core.data     0.972574                       # miss rate for overall accesses (Ratio)
board.cache_hierarchy.cc_l3cache.overallMissRate::processor.cores1.core.inst            1                       # miss rate for overall accesses (Ratio)
board.cache_hierarchy.cc_l3cache.overallMissRate::processor.cores1.core.data            1                       # miss rate for overall accesses (Ratio)
board.cache_hierarchy.cc_l3cache.overallMissRate::processor.cores2.core.inst            1                       # miss rate for overall accesses (Ratio)
board.cache_hierarchy.cc_l3cache.overallMissRate::processor.cores2.core.data            1                       # miss rate for overall accesses (Ratio)
board.cache_hierarchy.cc_l3cache.overallMissRate::processor.cores3.core.inst            1                       # miss rate for overall accesses (Ratio)
board.cache_hierarchy.cc_l3cache.overallMissRate::processor.cores3.core.data            1                       # miss rate for overall accesses (Ratio)
board.cache_hierarchy.cc_l3cache.overallMissRate::processor.cores4.core.data            1                       # miss rate for overall accesses (Ratio)
board.cache_hierarchy.cc_l3cache.overallMissRate::processor.cores5.core.data            1                       # miss rate for overall accesses (Ratio)
board.cache_hierarchy.cc_l3cache.overallMissRate::processor.cores6.core.inst            1                       # miss rate for overall accesses (Ratio)
board.cache_hierarchy.cc_l3cache.overallMissRate::processor.cores6.core.data            1                       # miss rate for overall accesses (Ratio)
board.cache_hierarchy.cc_l3cache.overallMissRate::processor.cores7.core.inst            1                       # miss rate for overall accesses (Ratio)
board.cache_hierarchy.cc_l3cache.overallMissRate::processor.cores7.core.data            1                       # miss rate for overall accesses (Ratio)
board.cache_hierarchy.cc_l3cache.overallMissRate::processor.cores0.core.cc_buffer     0.046156                       # miss rate for overall accesses (Ratio)
board.cache_hierarchy.cc_l3cache.overallMissRate::processor.cores1.core.cc_buffer     0.002225                       # miss rate for overall accesses (Ratio)
board.cache_hierarchy.cc_l3cache.overallMissRate::processor.cores2.core.cc_buffer     0.003945                       # miss rate for overall accesses (Ratio)
board.cache_hierarchy.cc_l3cache.overallMissRate::processor.cores3.core.cc_buffer     0.003269                       # miss rate for overall accesses (Ratio)
board.cache_hierarchy.cc_l3cache.overallMissRate::processor.cores4.core.cc_buffer     0.004245                       # miss rate for overall accesses (Ratio)
board.cache_hierarchy.cc_l3cache.overallMissRate::processor.cores5.core.cc_buffer     0.004799                       # miss rate for overall accesses (Ratio)
board.cache_hierarchy.cc_l3cache.overallMissRate::processor.cores6.core.cc_buffer     0.003928                       # miss rate for overall accesses (Ratio)
board.cache_hierarchy.cc_l3cache.overallMissRate::processor.cores7.core.cc_buffer     0.005685                       # miss rate for overall accesses (Ratio)
board.cache_hierarchy.cc_l3cache.overallMissRate::total     0.053110                       # miss rate for overall accesses (Ratio)
board.cache_hierarchy.cc_l3cache.demandAvgMissLatency::cache_hierarchy.l1dcaches0.prefetcher 91636.569231                       # average overall miss latency in ticks ((Tick/Count))
board.cache_hierarchy.cc_l3cache.demandAvgMissLatency::cache_hierarchy.l1dcaches7.prefetcher        73593                       # average overall miss latency in ticks ((Tick/Count))
board.cache_hierarchy.cc_l3cache.demandAvgMissLatency::cache_hierarchy.l2cache.prefetcher 75704.702703                       # average overall miss latency in ticks ((Tick/Count))
board.cache_hierarchy.cc_l3cache.demandAvgMissLatency::processor.cores0.core.inst 56380.996845                       # average overall miss latency in ticks ((Tick/Count))
board.cache_hierarchy.cc_l3cache.demandAvgMissLatency::processor.cores0.core.data 61963.281996                       # average overall miss latency in ticks ((Tick/Count))
board.cache_hierarchy.cc_l3cache.demandAvgMissLatency::processor.cores1.core.inst 58012.105263                       # average overall miss latency in ticks ((Tick/Count))
board.cache_hierarchy.cc_l3cache.demandAvgMissLatency::processor.cores1.core.data        67155                       # average overall miss latency in ticks ((Tick/Count))
board.cache_hierarchy.cc_l3cache.demandAvgMissLatency::processor.cores2.core.inst 65401.200000                       # average overall miss latency in ticks ((Tick/Count))
board.cache_hierarchy.cc_l3cache.demandAvgMissLatency::processor.cores2.core.data 57799.285714                       # average overall miss latency in ticks ((Tick/Count))
board.cache_hierarchy.cc_l3cache.demandAvgMissLatency::processor.cores3.core.inst        62271                       # average overall miss latency in ticks ((Tick/Count))
board.cache_hierarchy.cc_l3cache.demandAvgMissLatency::processor.cores3.core.data 48673.500000                       # average overall miss latency in ticks ((Tick/Count))
board.cache_hierarchy.cc_l3cache.demandAvgMissLatency::processor.cores4.core.data 50338.500000                       # average overall miss latency in ticks ((Tick/Count))
board.cache_hierarchy.cc_l3cache.demandAvgMissLatency::processor.cores5.core.data        53058                       # average overall miss latency in ticks ((Tick/Count))
board.cache_hierarchy.cc_l3cache.demandAvgMissLatency::processor.cores6.core.inst        58608                       # average overall miss latency in ticks ((Tick/Count))
board.cache_hierarchy.cc_l3cache.demandAvgMissLatency::processor.cores6.core.data        49284                       # average overall miss latency in ticks ((Tick/Count))
board.cache_hierarchy.cc_l3cache.demandAvgMissLatency::processor.cores7.core.inst 66766.500000                       # average overall miss latency in ticks ((Tick/Count))
board.cache_hierarchy.cc_l3cache.demandAvgMissLatency::processor.cores7.core.data        46287                       # average overall miss latency in ticks ((Tick/Count))
board.cache_hierarchy.cc_l3cache.demandAvgMissLatency::total 33753.869187                       # average overall miss latency in ticks ((Tick/Count))
board.cache_hierarchy.cc_l3cache.overallAvgMissLatency::cache_hierarchy.l1dcaches0.prefetcher 91636.569231                       # average overall miss latency ((Tick/Count))
board.cache_hierarchy.cc_l3cache.overallAvgMissLatency::cache_hierarchy.l1dcaches7.prefetcher        73593                       # average overall miss latency ((Tick/Count))
board.cache_hierarchy.cc_l3cache.overallAvgMissLatency::cache_hierarchy.l2cache.prefetcher 75704.702703                       # average overall miss latency ((Tick/Count))
board.cache_hierarchy.cc_l3cache.overallAvgMissLatency::processor.cores0.core.inst 56380.996845                       # average overall miss latency ((Tick/Count))
board.cache_hierarchy.cc_l3cache.overallAvgMissLatency::processor.cores0.core.data 61963.281996                       # average overall miss latency ((Tick/Count))
board.cache_hierarchy.cc_l3cache.overallAvgMissLatency::processor.cores1.core.inst 58012.105263                       # average overall miss latency ((Tick/Count))
board.cache_hierarchy.cc_l3cache.overallAvgMissLatency::processor.cores1.core.data        67155                       # average overall miss latency ((Tick/Count))
board.cache_hierarchy.cc_l3cache.overallAvgMissLatency::processor.cores2.core.inst 65401.200000                       # average overall miss latency ((Tick/Count))
board.cache_hierarchy.cc_l3cache.overallAvgMissLatency::processor.cores2.core.data 57799.285714                       # average overall miss latency ((Tick/Count))
board.cache_hierarchy.cc_l3cache.overallAvgMissLatency::processor.cores3.core.inst        62271                       # average overall miss latency ((Tick/Count))
board.cache_hierarchy.cc_l3cache.overallAvgMissLatency::processor.cores3.core.data 48673.500000                       # average overall miss latency ((Tick/Count))
board.cache_hierarchy.cc_l3cache.overallAvgMissLatency::processor.cores4.core.data 50338.500000                       # average overall miss latency ((Tick/Count))
board.cache_hierarchy.cc_l3cache.overallAvgMissLatency::processor.cores5.core.data        53058                       # average overall miss latency ((Tick/Count))
board.cache_hierarchy.cc_l3cache.overallAvgMissLatency::processor.cores6.core.inst        58608                       # average overall miss latency ((Tick/Count))
board.cache_hierarchy.cc_l3cache.overallAvgMissLatency::processor.cores6.core.data        49284                       # average overall miss latency ((Tick/Count))
board.cache_hierarchy.cc_l3cache.overallAvgMissLatency::processor.cores7.core.inst 66766.500000                       # average overall miss latency ((Tick/Count))
board.cache_hierarchy.cc_l3cache.overallAvgMissLatency::processor.cores7.core.data        46287                       # average overall miss latency ((Tick/Count))
board.cache_hierarchy.cc_l3cache.overallAvgMissLatency::total 33753.869187                       # average overall miss latency ((Tick/Count))
board.cache_hierarchy.cc_l3cache.blockedCycles::no_mshrs            0                       # number of cycles access was blocked (Cycle)
board.cache_hierarchy.cc_l3cache.blockedCycles::no_targets            0                       # number of cycles access was blocked (Cycle)
board.cache_hierarchy.cc_l3cache.blockedCauses::no_mshrs            0                       # number of times access was blocked (Count)
board.cache_hierarchy.cc_l3cache.blockedCauses::no_targets            0                       # number of times access was blocked (Count)
board.cache_hierarchy.cc_l3cache.avgBlocked::no_mshrs          nan                       # average number of cycles each access was blocked ((Cycle/Count))
board.cache_hierarchy.cc_l3cache.avgBlocked::no_targets          nan                       # average number of cycles each access was blocked ((Cycle/Count))
board.cache_hierarchy.cc_l3cache.demandMshrHits::cache_hierarchy.l1dcaches0.prefetcher            2                       # number of demand (read+write) MSHR hits (Count)
board.cache_hierarchy.cc_l3cache.demandMshrHits::cache_hierarchy.l2cache.prefetcher           11                       # number of demand (read+write) MSHR hits (Count)
board.cache_hierarchy.cc_l3cache.demandMshrHits::total           13                       # number of demand (read+write) MSHR hits (Count)
board.cache_hierarchy.cc_l3cache.overallMshrHits::cache_hierarchy.l1dcaches0.prefetcher            2                       # number of overall MSHR hits (Count)
board.cache_hierarchy.cc_l3cache.overallMshrHits::cache_hierarchy.l2cache.prefetcher           11                       # number of overall MSHR hits (Count)
board.cache_hierarchy.cc_l3cache.overallMshrHits::total           13                       # number of overall MSHR hits (Count)
board.cache_hierarchy.cc_l3cache.demandMshrMisses::cache_hierarchy.l1dcaches0.prefetcher           63                       # number of demand (read+write) MSHR misses (Count)
board.cache_hierarchy.cc_l3cache.demandMshrMisses::cache_hierarchy.l1dcaches7.prefetcher            1                       # number of demand (read+write) MSHR misses (Count)
board.cache_hierarchy.cc_l3cache.demandMshrMisses::cache_hierarchy.l2cache.prefetcher          100                       # number of demand (read+write) MSHR misses (Count)
board.cache_hierarchy.cc_l3cache.demandMshrMisses::processor.cores0.core.inst          951                       # number of demand (read+write) MSHR misses (Count)
board.cache_hierarchy.cc_l3cache.demandMshrMisses::processor.cores0.core.data          461                       # number of demand (read+write) MSHR misses (Count)
board.cache_hierarchy.cc_l3cache.demandMshrMisses::processor.cores1.core.inst           19                       # number of demand (read+write) MSHR misses (Count)
board.cache_hierarchy.cc_l3cache.demandMshrMisses::processor.cores1.core.data            6                       # number of demand (read+write) MSHR misses (Count)
board.cache_hierarchy.cc_l3cache.demandMshrMisses::processor.cores2.core.inst            5                       # number of demand (read+write) MSHR misses (Count)
board.cache_hierarchy.cc_l3cache.demandMshrMisses::processor.cores2.core.data            7                       # number of demand (read+write) MSHR misses (Count)
board.cache_hierarchy.cc_l3cache.demandMshrMisses::processor.cores3.core.inst            2                       # number of demand (read+write) MSHR misses (Count)
board.cache_hierarchy.cc_l3cache.demandMshrMisses::processor.cores3.core.data            6                       # number of demand (read+write) MSHR misses (Count)
board.cache_hierarchy.cc_l3cache.demandMshrMisses::processor.cores4.core.data            6                       # number of demand (read+write) MSHR misses (Count)
board.cache_hierarchy.cc_l3cache.demandMshrMisses::processor.cores5.core.data            6                       # number of demand (read+write) MSHR misses (Count)
board.cache_hierarchy.cc_l3cache.demandMshrMisses::processor.cores6.core.inst            5                       # number of demand (read+write) MSHR misses (Count)
board.cache_hierarchy.cc_l3cache.demandMshrMisses::processor.cores6.core.data            6                       # number of demand (read+write) MSHR misses (Count)
board.cache_hierarchy.cc_l3cache.demandMshrMisses::processor.cores7.core.inst            2                       # number of demand (read+write) MSHR misses (Count)
board.cache_hierarchy.cc_l3cache.demandMshrMisses::processor.cores7.core.data            6                       # number of demand (read+write) MSHR misses (Count)
board.cache_hierarchy.cc_l3cache.demandMshrMisses::total         1652                       # number of demand (read+write) MSHR misses (Count)
board.cache_hierarchy.cc_l3cache.overallMshrMisses::cache_hierarchy.cc_l3cache.prefetcher           69                       # number of overall MSHR misses (Count)
board.cache_hierarchy.cc_l3cache.overallMshrMisses::cache_hierarchy.l1dcaches0.prefetcher           63                       # number of overall MSHR misses (Count)
board.cache_hierarchy.cc_l3cache.overallMshrMisses::cache_hierarchy.l1dcaches7.prefetcher            1                       # number of overall MSHR misses (Count)
board.cache_hierarchy.cc_l3cache.overallMshrMisses::cache_hierarchy.l2cache.prefetcher          100                       # number of overall MSHR misses (Count)
board.cache_hierarchy.cc_l3cache.overallMshrMisses::processor.cores0.core.inst          951                       # number of overall MSHR misses (Count)
board.cache_hierarchy.cc_l3cache.overallMshrMisses::processor.cores0.core.data          461                       # number of overall MSHR misses (Count)
board.cache_hierarchy.cc_l3cache.overallMshrMisses::processor.cores1.core.inst           19                       # number of overall MSHR misses (Count)
board.cache_hierarchy.cc_l3cache.overallMshrMisses::processor.cores1.core.data            6                       # number of overall MSHR misses (Count)
board.cache_hierarchy.cc_l3cache.overallMshrMisses::processor.cores2.core.inst            5                       # number of overall MSHR misses (Count)
board.cache_hierarchy.cc_l3cache.overallMshrMisses::processor.cores2.core.data            7                       # number of overall MSHR misses (Count)
board.cache_hierarchy.cc_l3cache.overallMshrMisses::processor.cores3.core.inst            2                       # number of overall MSHR misses (Count)
board.cache_hierarchy.cc_l3cache.overallMshrMisses::processor.cores3.core.data            6                       # number of overall MSHR misses (Count)
board.cache_hierarchy.cc_l3cache.overallMshrMisses::processor.cores4.core.data            6                       # number of overall MSHR misses (Count)
board.cache_hierarchy.cc_l3cache.overallMshrMisses::processor.cores5.core.data            6                       # number of overall MSHR misses (Count)
board.cache_hierarchy.cc_l3cache.overallMshrMisses::processor.cores6.core.inst            5                       # number of overall MSHR misses (Count)
board.cache_hierarchy.cc_l3cache.overallMshrMisses::processor.cores6.core.data            6                       # number of overall MSHR misses (Count)
board.cache_hierarchy.cc_l3cache.overallMshrMisses::processor.cores7.core.inst            2                       # number of overall MSHR misses (Count)
board.cache_hierarchy.cc_l3cache.overallMshrMisses::processor.cores7.core.data            6                       # number of overall MSHR misses (Count)
board.cache_hierarchy.cc_l3cache.overallMshrMisses::total         1721                       # number of overall MSHR misses (Count)
board.cache_hierarchy.cc_l3cache.demandMshrMissLatency::cache_hierarchy.l1dcaches0.prefetcher      5818179                       # number of demand (read+write) MSHR miss ticks (Tick)
board.cache_hierarchy.cc_l3cache.demandMshrMissLatency::cache_hierarchy.l1dcaches7.prefetcher        73260                       # number of demand (read+write) MSHR miss ticks (Tick)
board.cache_hierarchy.cc_l3cache.demandMshrMissLatency::cache_hierarchy.l2cache.prefetcher      7810842                       # number of demand (read+write) MSHR miss ticks (Tick)
board.cache_hierarchy.cc_l3cache.demandMshrMissLatency::processor.cores0.core.inst     53301978                       # number of demand (read+write) MSHR miss ticks (Tick)
board.cache_hierarchy.cc_l3cache.demandMshrMissLatency::processor.cores0.core.data     28411560                       # number of demand (read+write) MSHR miss ticks (Tick)
board.cache_hierarchy.cc_l3cache.demandMshrMissLatency::processor.cores1.core.inst      1095903                       # number of demand (read+write) MSHR miss ticks (Tick)
board.cache_hierarchy.cc_l3cache.demandMshrMissLatency::processor.cores1.core.data       400932                       # number of demand (read+write) MSHR miss ticks (Tick)
board.cache_hierarchy.cc_l3cache.demandMshrMissLatency::processor.cores2.core.inst       325341                       # number of demand (read+write) MSHR miss ticks (Tick)
board.cache_hierarchy.cc_l3cache.demandMshrMissLatency::processor.cores2.core.data       402264                       # number of demand (read+write) MSHR miss ticks (Tick)
board.cache_hierarchy.cc_l3cache.demandMshrMissLatency::processor.cores3.core.inst       123876                       # number of demand (read+write) MSHR miss ticks (Tick)
board.cache_hierarchy.cc_l3cache.demandMshrMissLatency::processor.cores3.core.data       290043                       # number of demand (read+write) MSHR miss ticks (Tick)
board.cache_hierarchy.cc_l3cache.demandMshrMissLatency::processor.cores4.core.data       300033                       # number of demand (read+write) MSHR miss ticks (Tick)
board.cache_hierarchy.cc_l3cache.demandMshrMissLatency::processor.cores5.core.data       316350                       # number of demand (read+write) MSHR miss ticks (Tick)
board.cache_hierarchy.cc_l3cache.demandMshrMissLatency::processor.cores6.core.inst       291375                       # number of demand (read+write) MSHR miss ticks (Tick)
board.cache_hierarchy.cc_l3cache.demandMshrMissLatency::processor.cores6.core.data       293706                       # number of demand (read+write) MSHR miss ticks (Tick)
board.cache_hierarchy.cc_l3cache.demandMshrMissLatency::processor.cores7.core.inst       132867                       # number of demand (read+write) MSHR miss ticks (Tick)
board.cache_hierarchy.cc_l3cache.demandMshrMissLatency::processor.cores7.core.data       275724                       # number of demand (read+write) MSHR miss ticks (Tick)
board.cache_hierarchy.cc_l3cache.demandMshrMissLatency::total     99664233                       # number of demand (read+write) MSHR miss ticks (Tick)
board.cache_hierarchy.cc_l3cache.overallMshrMissLatency::cache_hierarchy.cc_l3cache.prefetcher      4676252                       # number of overall MSHR miss ticks (Tick)
board.cache_hierarchy.cc_l3cache.overallMshrMissLatency::cache_hierarchy.l1dcaches0.prefetcher      5818179                       # number of overall MSHR miss ticks (Tick)
board.cache_hierarchy.cc_l3cache.overallMshrMissLatency::cache_hierarchy.l1dcaches7.prefetcher        73260                       # number of overall MSHR miss ticks (Tick)
board.cache_hierarchy.cc_l3cache.overallMshrMissLatency::cache_hierarchy.l2cache.prefetcher      7810842                       # number of overall MSHR miss ticks (Tick)
board.cache_hierarchy.cc_l3cache.overallMshrMissLatency::processor.cores0.core.inst     53301978                       # number of overall MSHR miss ticks (Tick)
board.cache_hierarchy.cc_l3cache.overallMshrMissLatency::processor.cores0.core.data     28411560                       # number of overall MSHR miss ticks (Tick)
board.cache_hierarchy.cc_l3cache.overallMshrMissLatency::processor.cores1.core.inst      1095903                       # number of overall MSHR miss ticks (Tick)
board.cache_hierarchy.cc_l3cache.overallMshrMissLatency::processor.cores1.core.data       400932                       # number of overall MSHR miss ticks (Tick)
board.cache_hierarchy.cc_l3cache.overallMshrMissLatency::processor.cores2.core.inst       325341                       # number of overall MSHR miss ticks (Tick)
board.cache_hierarchy.cc_l3cache.overallMshrMissLatency::processor.cores2.core.data       402264                       # number of overall MSHR miss ticks (Tick)
board.cache_hierarchy.cc_l3cache.overallMshrMissLatency::processor.cores3.core.inst       123876                       # number of overall MSHR miss ticks (Tick)
board.cache_hierarchy.cc_l3cache.overallMshrMissLatency::processor.cores3.core.data       290043                       # number of overall MSHR miss ticks (Tick)
board.cache_hierarchy.cc_l3cache.overallMshrMissLatency::processor.cores4.core.data       300033                       # number of overall MSHR miss ticks (Tick)
board.cache_hierarchy.cc_l3cache.overallMshrMissLatency::processor.cores5.core.data       316350                       # number of overall MSHR miss ticks (Tick)
board.cache_hierarchy.cc_l3cache.overallMshrMissLatency::processor.cores6.core.inst       291375                       # number of overall MSHR miss ticks (Tick)
board.cache_hierarchy.cc_l3cache.overallMshrMissLatency::processor.cores6.core.data       293706                       # number of overall MSHR miss ticks (Tick)
board.cache_hierarchy.cc_l3cache.overallMshrMissLatency::processor.cores7.core.inst       132867                       # number of overall MSHR miss ticks (Tick)
board.cache_hierarchy.cc_l3cache.overallMshrMissLatency::processor.cores7.core.data       275724                       # number of overall MSHR miss ticks (Tick)
board.cache_hierarchy.cc_l3cache.overallMshrMissLatency::total    104340485                       # number of overall MSHR miss ticks (Tick)
board.cache_hierarchy.cc_l3cache.demandMshrMissRate::cache_hierarchy.l1dcaches0.prefetcher     0.807692                       # mshr miss ratio for demand accesses (Ratio)
board.cache_hierarchy.cc_l3cache.demandMshrMissRate::cache_hierarchy.l1dcaches7.prefetcher            1                       # mshr miss ratio for demand accesses (Ratio)
board.cache_hierarchy.cc_l3cache.demandMshrMissRate::cache_hierarchy.l2cache.prefetcher     0.826446                       # mshr miss ratio for demand accesses (Ratio)
board.cache_hierarchy.cc_l3cache.demandMshrMissRate::processor.cores0.core.inst            1                       # mshr miss ratio for demand accesses (Ratio)
board.cache_hierarchy.cc_l3cache.demandMshrMissRate::processor.cores0.core.data     0.972574                       # mshr miss ratio for demand accesses (Ratio)
board.cache_hierarchy.cc_l3cache.demandMshrMissRate::processor.cores1.core.inst            1                       # mshr miss ratio for demand accesses (Ratio)
board.cache_hierarchy.cc_l3cache.demandMshrMissRate::processor.cores1.core.data            1                       # mshr miss ratio for demand accesses (Ratio)
board.cache_hierarchy.cc_l3cache.demandMshrMissRate::processor.cores2.core.inst            1                       # mshr miss ratio for demand accesses (Ratio)
board.cache_hierarchy.cc_l3cache.demandMshrMissRate::processor.cores2.core.data            1                       # mshr miss ratio for demand accesses (Ratio)
board.cache_hierarchy.cc_l3cache.demandMshrMissRate::processor.cores3.core.inst            1                       # mshr miss ratio for demand accesses (Ratio)
board.cache_hierarchy.cc_l3cache.demandMshrMissRate::processor.cores3.core.data            1                       # mshr miss ratio for demand accesses (Ratio)
board.cache_hierarchy.cc_l3cache.demandMshrMissRate::processor.cores4.core.data            1                       # mshr miss ratio for demand accesses (Ratio)
board.cache_hierarchy.cc_l3cache.demandMshrMissRate::processor.cores5.core.data            1                       # mshr miss ratio for demand accesses (Ratio)
board.cache_hierarchy.cc_l3cache.demandMshrMissRate::processor.cores6.core.inst            1                       # mshr miss ratio for demand accesses (Ratio)
board.cache_hierarchy.cc_l3cache.demandMshrMissRate::processor.cores6.core.data            1                       # mshr miss ratio for demand accesses (Ratio)
board.cache_hierarchy.cc_l3cache.demandMshrMissRate::processor.cores7.core.inst            1                       # mshr miss ratio for demand accesses (Ratio)
board.cache_hierarchy.cc_l3cache.demandMshrMissRate::processor.cores7.core.data            1                       # mshr miss ratio for demand accesses (Ratio)
board.cache_hierarchy.cc_l3cache.demandMshrMissRate::total     0.029354                       # mshr miss ratio for demand accesses (Ratio)
board.cache_hierarchy.cc_l3cache.overallMshrMissRate::cache_hierarchy.cc_l3cache.prefetcher          inf                       # mshr miss ratio for overall accesses (Ratio)
board.cache_hierarchy.cc_l3cache.overallMshrMissRate::cache_hierarchy.l1dcaches0.prefetcher     0.807692                       # mshr miss ratio for overall accesses (Ratio)
board.cache_hierarchy.cc_l3cache.overallMshrMissRate::cache_hierarchy.l1dcaches7.prefetcher            1                       # mshr miss ratio for overall accesses (Ratio)
board.cache_hierarchy.cc_l3cache.overallMshrMissRate::cache_hierarchy.l2cache.prefetcher     0.826446                       # mshr miss ratio for overall accesses (Ratio)
board.cache_hierarchy.cc_l3cache.overallMshrMissRate::processor.cores0.core.inst            1                       # mshr miss ratio for overall accesses (Ratio)
board.cache_hierarchy.cc_l3cache.overallMshrMissRate::processor.cores0.core.data     0.972574                       # mshr miss ratio for overall accesses (Ratio)
board.cache_hierarchy.cc_l3cache.overallMshrMissRate::processor.cores1.core.inst            1                       # mshr miss ratio for overall accesses (Ratio)
board.cache_hierarchy.cc_l3cache.overallMshrMissRate::processor.cores1.core.data            1                       # mshr miss ratio for overall accesses (Ratio)
board.cache_hierarchy.cc_l3cache.overallMshrMissRate::processor.cores2.core.inst            1                       # mshr miss ratio for overall accesses (Ratio)
board.cache_hierarchy.cc_l3cache.overallMshrMissRate::processor.cores2.core.data            1                       # mshr miss ratio for overall accesses (Ratio)
board.cache_hierarchy.cc_l3cache.overallMshrMissRate::processor.cores3.core.inst            1                       # mshr miss ratio for overall accesses (Ratio)
board.cache_hierarchy.cc_l3cache.overallMshrMissRate::processor.cores3.core.data            1                       # mshr miss ratio for overall accesses (Ratio)
board.cache_hierarchy.cc_l3cache.overallMshrMissRate::processor.cores4.core.data            1                       # mshr miss ratio for overall accesses (Ratio)
board.cache_hierarchy.cc_l3cache.overallMshrMissRate::processor.cores5.core.data            1                       # mshr miss ratio for overall accesses (Ratio)
board.cache_hierarchy.cc_l3cache.overallMshrMissRate::processor.cores6.core.inst            1                       # mshr miss ratio for overall accesses (Ratio)
board.cache_hierarchy.cc_l3cache.overallMshrMissRate::processor.cores6.core.data            1                       # mshr miss ratio for overall accesses (Ratio)
board.cache_hierarchy.cc_l3cache.overallMshrMissRate::processor.cores7.core.inst            1                       # mshr miss ratio for overall accesses (Ratio)
board.cache_hierarchy.cc_l3cache.overallMshrMissRate::processor.cores7.core.data            1                       # mshr miss ratio for overall accesses (Ratio)
board.cache_hierarchy.cc_l3cache.overallMshrMissRate::total     0.030580                       # mshr miss ratio for overall accesses (Ratio)
board.cache_hierarchy.cc_l3cache.demandAvgMshrMissLatency::cache_hierarchy.l1dcaches0.prefetcher 92352.047619                       # average overall mshr miss latency ((Tick/Count))
board.cache_hierarchy.cc_l3cache.demandAvgMshrMissLatency::cache_hierarchy.l1dcaches7.prefetcher        73260                       # average overall mshr miss latency ((Tick/Count))
board.cache_hierarchy.cc_l3cache.demandAvgMshrMissLatency::cache_hierarchy.l2cache.prefetcher 78108.420000                       # average overall mshr miss latency ((Tick/Count))
board.cache_hierarchy.cc_l3cache.demandAvgMshrMissLatency::processor.cores0.core.inst 56048.347003                       # average overall mshr miss latency ((Tick/Count))
board.cache_hierarchy.cc_l3cache.demandAvgMshrMissLatency::processor.cores0.core.data 61630.281996                       # average overall mshr miss latency ((Tick/Count))
board.cache_hierarchy.cc_l3cache.demandAvgMshrMissLatency::processor.cores1.core.inst 57679.105263                       # average overall mshr miss latency ((Tick/Count))
board.cache_hierarchy.cc_l3cache.demandAvgMshrMissLatency::processor.cores1.core.data        66822                       # average overall mshr miss latency ((Tick/Count))
board.cache_hierarchy.cc_l3cache.demandAvgMshrMissLatency::processor.cores2.core.inst 65068.200000                       # average overall mshr miss latency ((Tick/Count))
board.cache_hierarchy.cc_l3cache.demandAvgMshrMissLatency::processor.cores2.core.data 57466.285714                       # average overall mshr miss latency ((Tick/Count))
board.cache_hierarchy.cc_l3cache.demandAvgMshrMissLatency::processor.cores3.core.inst        61938                       # average overall mshr miss latency ((Tick/Count))
board.cache_hierarchy.cc_l3cache.demandAvgMshrMissLatency::processor.cores3.core.data 48340.500000                       # average overall mshr miss latency ((Tick/Count))
board.cache_hierarchy.cc_l3cache.demandAvgMshrMissLatency::processor.cores4.core.data 50005.500000                       # average overall mshr miss latency ((Tick/Count))
board.cache_hierarchy.cc_l3cache.demandAvgMshrMissLatency::processor.cores5.core.data        52725                       # average overall mshr miss latency ((Tick/Count))
board.cache_hierarchy.cc_l3cache.demandAvgMshrMissLatency::processor.cores6.core.inst        58275                       # average overall mshr miss latency ((Tick/Count))
board.cache_hierarchy.cc_l3cache.demandAvgMshrMissLatency::processor.cores6.core.data        48951                       # average overall mshr miss latency ((Tick/Count))
board.cache_hierarchy.cc_l3cache.demandAvgMshrMissLatency::processor.cores7.core.inst 66433.500000                       # average overall mshr miss latency ((Tick/Count))
board.cache_hierarchy.cc_l3cache.demandAvgMshrMissLatency::processor.cores7.core.data        45954                       # average overall mshr miss latency ((Tick/Count))
board.cache_hierarchy.cc_l3cache.demandAvgMshrMissLatency::total 60329.438862                       # average overall mshr miss latency ((Tick/Count))
board.cache_hierarchy.cc_l3cache.overallAvgMshrMissLatency::cache_hierarchy.cc_l3cache.prefetcher 67771.768116                       # average overall mshr miss latency ((Tick/Count))
board.cache_hierarchy.cc_l3cache.overallAvgMshrMissLatency::cache_hierarchy.l1dcaches0.prefetcher 92352.047619                       # average overall mshr miss latency ((Tick/Count))
board.cache_hierarchy.cc_l3cache.overallAvgMshrMissLatency::cache_hierarchy.l1dcaches7.prefetcher        73260                       # average overall mshr miss latency ((Tick/Count))
board.cache_hierarchy.cc_l3cache.overallAvgMshrMissLatency::cache_hierarchy.l2cache.prefetcher 78108.420000                       # average overall mshr miss latency ((Tick/Count))
board.cache_hierarchy.cc_l3cache.overallAvgMshrMissLatency::processor.cores0.core.inst 56048.347003                       # average overall mshr miss latency ((Tick/Count))
board.cache_hierarchy.cc_l3cache.overallAvgMshrMissLatency::processor.cores0.core.data 61630.281996                       # average overall mshr miss latency ((Tick/Count))
board.cache_hierarchy.cc_l3cache.overallAvgMshrMissLatency::processor.cores1.core.inst 57679.105263                       # average overall mshr miss latency ((Tick/Count))
board.cache_hierarchy.cc_l3cache.overallAvgMshrMissLatency::processor.cores1.core.data        66822                       # average overall mshr miss latency ((Tick/Count))
board.cache_hierarchy.cc_l3cache.overallAvgMshrMissLatency::processor.cores2.core.inst 65068.200000                       # average overall mshr miss latency ((Tick/Count))
board.cache_hierarchy.cc_l3cache.overallAvgMshrMissLatency::processor.cores2.core.data 57466.285714                       # average overall mshr miss latency ((Tick/Count))
board.cache_hierarchy.cc_l3cache.overallAvgMshrMissLatency::processor.cores3.core.inst        61938                       # average overall mshr miss latency ((Tick/Count))
board.cache_hierarchy.cc_l3cache.overallAvgMshrMissLatency::processor.cores3.core.data 48340.500000                       # average overall mshr miss latency ((Tick/Count))
board.cache_hierarchy.cc_l3cache.overallAvgMshrMissLatency::processor.cores4.core.data 50005.500000                       # average overall mshr miss latency ((Tick/Count))
board.cache_hierarchy.cc_l3cache.overallAvgMshrMissLatency::processor.cores5.core.data        52725                       # average overall mshr miss latency ((Tick/Count))
board.cache_hierarchy.cc_l3cache.overallAvgMshrMissLatency::processor.cores6.core.inst        58275                       # average overall mshr miss latency ((Tick/Count))
board.cache_hierarchy.cc_l3cache.overallAvgMshrMissLatency::processor.cores6.core.data        48951                       # average overall mshr miss latency ((Tick/Count))
board.cache_hierarchy.cc_l3cache.overallAvgMshrMissLatency::processor.cores7.core.inst 66433.500000                       # average overall mshr miss latency ((Tick/Count))
board.cache_hierarchy.cc_l3cache.overallAvgMshrMissLatency::processor.cores7.core.data        45954                       # average overall mshr miss latency ((Tick/Count))
board.cache_hierarchy.cc_l3cache.overallAvgMshrMissLatency::total 60627.823940                       # average overall mshr miss latency ((Tick/Count))
board.cache_hierarchy.cc_l3cache.replacements            0                       # number of replacements (Count)
board.cache_hierarchy.cc_l3cache.HardPFReq.mshrMisses::cache_hierarchy.cc_l3cache.prefetcher           69                       # number of HardPFReq MSHR misses (Count)
board.cache_hierarchy.cc_l3cache.HardPFReq.mshrMisses::total           69                       # number of HardPFReq MSHR misses (Count)
board.cache_hierarchy.cc_l3cache.HardPFReq.mshrMissLatency::cache_hierarchy.cc_l3cache.prefetcher      4676252                       # number of HardPFReq MSHR miss ticks (Tick)
board.cache_hierarchy.cc_l3cache.HardPFReq.mshrMissLatency::total      4676252                       # number of HardPFReq MSHR miss ticks (Tick)
board.cache_hierarchy.cc_l3cache.HardPFReq.mshrMissRate::cache_hierarchy.cc_l3cache.prefetcher          inf                       # mshr miss rate for HardPFReq accesses (Ratio)
board.cache_hierarchy.cc_l3cache.HardPFReq.mshrMissRate::total          inf                       # mshr miss rate for HardPFReq accesses (Ratio)
board.cache_hierarchy.cc_l3cache.HardPFReq.avgMshrMissLatency::cache_hierarchy.cc_l3cache.prefetcher 67771.768116                       # average HardPFReq mshr miss latency ((Tick/Count))
board.cache_hierarchy.cc_l3cache.HardPFReq.avgMshrMissLatency::total 67771.768116                       # average HardPFReq mshr miss latency ((Tick/Count))
board.cache_hierarchy.cc_l3cache.ReadExReq.hits::processor.cores0.core.data            8                       # number of ReadExReq hits (Count)
board.cache_hierarchy.cc_l3cache.ReadExReq.hits::total            8                       # number of ReadExReq hits (Count)
board.cache_hierarchy.cc_l3cache.ReadExReq.misses::processor.cores0.core.data          288                       # number of ReadExReq misses (Count)
board.cache_hierarchy.cc_l3cache.ReadExReq.misses::processor.cores1.core.data            5                       # number of ReadExReq misses (Count)
board.cache_hierarchy.cc_l3cache.ReadExReq.misses::processor.cores2.core.data            5                       # number of ReadExReq misses (Count)
board.cache_hierarchy.cc_l3cache.ReadExReq.misses::processor.cores3.core.data            5                       # number of ReadExReq misses (Count)
board.cache_hierarchy.cc_l3cache.ReadExReq.misses::processor.cores4.core.data            5                       # number of ReadExReq misses (Count)
board.cache_hierarchy.cc_l3cache.ReadExReq.misses::processor.cores5.core.data            5                       # number of ReadExReq misses (Count)
board.cache_hierarchy.cc_l3cache.ReadExReq.misses::processor.cores6.core.data            5                       # number of ReadExReq misses (Count)
board.cache_hierarchy.cc_l3cache.ReadExReq.misses::processor.cores7.core.data            5                       # number of ReadExReq misses (Count)
board.cache_hierarchy.cc_l3cache.ReadExReq.misses::total          323                       # number of ReadExReq misses (Count)
board.cache_hierarchy.cc_l3cache.ReadExReq.missLatency::processor.cores0.core.data     16742241                       # number of ReadExReq miss ticks (Tick)
board.cache_hierarchy.cc_l3cache.ReadExReq.missLatency::processor.cores1.core.data       285714                       # number of ReadExReq miss ticks (Tick)
board.cache_hierarchy.cc_l3cache.ReadExReq.missLatency::processor.cores2.core.data       284715                       # number of ReadExReq miss ticks (Tick)
board.cache_hierarchy.cc_l3cache.ReadExReq.missLatency::processor.cores3.core.data       245754                       # number of ReadExReq miss ticks (Tick)
board.cache_hierarchy.cc_l3cache.ReadExReq.missLatency::processor.cores4.core.data       255744                       # number of ReadExReq miss ticks (Tick)
board.cache_hierarchy.cc_l3cache.ReadExReq.missLatency::processor.cores5.core.data       272061                       # number of ReadExReq miss ticks (Tick)
board.cache_hierarchy.cc_l3cache.ReadExReq.missLatency::processor.cores6.core.data       249417                       # number of ReadExReq miss ticks (Tick)
board.cache_hierarchy.cc_l3cache.ReadExReq.missLatency::processor.cores7.core.data       231435                       # number of ReadExReq miss ticks (Tick)
board.cache_hierarchy.cc_l3cache.ReadExReq.missLatency::total     18567081                       # number of ReadExReq miss ticks (Tick)
board.cache_hierarchy.cc_l3cache.ReadExReq.accesses::processor.cores0.core.data          296                       # number of ReadExReq accesses(hits+misses) (Count)
board.cache_hierarchy.cc_l3cache.ReadExReq.accesses::processor.cores1.core.data            5                       # number of ReadExReq accesses(hits+misses) (Count)
board.cache_hierarchy.cc_l3cache.ReadExReq.accesses::processor.cores2.core.data            5                       # number of ReadExReq accesses(hits+misses) (Count)
board.cache_hierarchy.cc_l3cache.ReadExReq.accesses::processor.cores3.core.data            5                       # number of ReadExReq accesses(hits+misses) (Count)
board.cache_hierarchy.cc_l3cache.ReadExReq.accesses::processor.cores4.core.data            5                       # number of ReadExReq accesses(hits+misses) (Count)
board.cache_hierarchy.cc_l3cache.ReadExReq.accesses::processor.cores5.core.data            5                       # number of ReadExReq accesses(hits+misses) (Count)
board.cache_hierarchy.cc_l3cache.ReadExReq.accesses::processor.cores6.core.data            5                       # number of ReadExReq accesses(hits+misses) (Count)
board.cache_hierarchy.cc_l3cache.ReadExReq.accesses::processor.cores7.core.data            5                       # number of ReadExReq accesses(hits+misses) (Count)
board.cache_hierarchy.cc_l3cache.ReadExReq.accesses::total          331                       # number of ReadExReq accesses(hits+misses) (Count)
board.cache_hierarchy.cc_l3cache.ReadExReq.missRate::processor.cores0.core.data     0.972973                       # miss rate for ReadExReq accesses (Ratio)
board.cache_hierarchy.cc_l3cache.ReadExReq.missRate::processor.cores1.core.data            1                       # miss rate for ReadExReq accesses (Ratio)
board.cache_hierarchy.cc_l3cache.ReadExReq.missRate::processor.cores2.core.data            1                       # miss rate for ReadExReq accesses (Ratio)
board.cache_hierarchy.cc_l3cache.ReadExReq.missRate::processor.cores3.core.data            1                       # miss rate for ReadExReq accesses (Ratio)
board.cache_hierarchy.cc_l3cache.ReadExReq.missRate::processor.cores4.core.data            1                       # miss rate for ReadExReq accesses (Ratio)
board.cache_hierarchy.cc_l3cache.ReadExReq.missRate::processor.cores5.core.data            1                       # miss rate for ReadExReq accesses (Ratio)
board.cache_hierarchy.cc_l3cache.ReadExReq.missRate::processor.cores6.core.data            1                       # miss rate for ReadExReq accesses (Ratio)
board.cache_hierarchy.cc_l3cache.ReadExReq.missRate::processor.cores7.core.data            1                       # miss rate for ReadExReq accesses (Ratio)
board.cache_hierarchy.cc_l3cache.ReadExReq.missRate::total     0.975831                       # miss rate for ReadExReq accesses (Ratio)
board.cache_hierarchy.cc_l3cache.ReadExReq.avgMissLatency::processor.cores0.core.data 58132.781250                       # average ReadExReq miss latency ((Tick/Count))
board.cache_hierarchy.cc_l3cache.ReadExReq.avgMissLatency::processor.cores1.core.data 57142.800000                       # average ReadExReq miss latency ((Tick/Count))
board.cache_hierarchy.cc_l3cache.ReadExReq.avgMissLatency::processor.cores2.core.data        56943                       # average ReadExReq miss latency ((Tick/Count))
board.cache_hierarchy.cc_l3cache.ReadExReq.avgMissLatency::processor.cores3.core.data 49150.800000                       # average ReadExReq miss latency ((Tick/Count))
board.cache_hierarchy.cc_l3cache.ReadExReq.avgMissLatency::processor.cores4.core.data 51148.800000                       # average ReadExReq miss latency ((Tick/Count))
board.cache_hierarchy.cc_l3cache.ReadExReq.avgMissLatency::processor.cores5.core.data 54412.200000                       # average ReadExReq miss latency ((Tick/Count))
board.cache_hierarchy.cc_l3cache.ReadExReq.avgMissLatency::processor.cores6.core.data 49883.400000                       # average ReadExReq miss latency ((Tick/Count))
board.cache_hierarchy.cc_l3cache.ReadExReq.avgMissLatency::processor.cores7.core.data        46287                       # average ReadExReq miss latency ((Tick/Count))
board.cache_hierarchy.cc_l3cache.ReadExReq.avgMissLatency::total 57483.222910                       # average ReadExReq miss latency ((Tick/Count))
board.cache_hierarchy.cc_l3cache.ReadExReq.mshrMisses::processor.cores0.core.data          288                       # number of ReadExReq MSHR misses (Count)
board.cache_hierarchy.cc_l3cache.ReadExReq.mshrMisses::processor.cores1.core.data            5                       # number of ReadExReq MSHR misses (Count)
board.cache_hierarchy.cc_l3cache.ReadExReq.mshrMisses::processor.cores2.core.data            5                       # number of ReadExReq MSHR misses (Count)
board.cache_hierarchy.cc_l3cache.ReadExReq.mshrMisses::processor.cores3.core.data            5                       # number of ReadExReq MSHR misses (Count)
board.cache_hierarchy.cc_l3cache.ReadExReq.mshrMisses::processor.cores4.core.data            5                       # number of ReadExReq MSHR misses (Count)
board.cache_hierarchy.cc_l3cache.ReadExReq.mshrMisses::processor.cores5.core.data            5                       # number of ReadExReq MSHR misses (Count)
board.cache_hierarchy.cc_l3cache.ReadExReq.mshrMisses::processor.cores6.core.data            5                       # number of ReadExReq MSHR misses (Count)
board.cache_hierarchy.cc_l3cache.ReadExReq.mshrMisses::processor.cores7.core.data            5                       # number of ReadExReq MSHR misses (Count)
board.cache_hierarchy.cc_l3cache.ReadExReq.mshrMisses::total          323                       # number of ReadExReq MSHR misses (Count)
board.cache_hierarchy.cc_l3cache.ReadExReq.mshrMissLatency::processor.cores0.core.data     16646337                       # number of ReadExReq MSHR miss ticks (Tick)
board.cache_hierarchy.cc_l3cache.ReadExReq.mshrMissLatency::processor.cores1.core.data       284049                       # number of ReadExReq MSHR miss ticks (Tick)
board.cache_hierarchy.cc_l3cache.ReadExReq.mshrMissLatency::processor.cores2.core.data       283050                       # number of ReadExReq MSHR miss ticks (Tick)
board.cache_hierarchy.cc_l3cache.ReadExReq.mshrMissLatency::processor.cores3.core.data       244089                       # number of ReadExReq MSHR miss ticks (Tick)
board.cache_hierarchy.cc_l3cache.ReadExReq.mshrMissLatency::processor.cores4.core.data       254079                       # number of ReadExReq MSHR miss ticks (Tick)
board.cache_hierarchy.cc_l3cache.ReadExReq.mshrMissLatency::processor.cores5.core.data       270396                       # number of ReadExReq MSHR miss ticks (Tick)
board.cache_hierarchy.cc_l3cache.ReadExReq.mshrMissLatency::processor.cores6.core.data       247752                       # number of ReadExReq MSHR miss ticks (Tick)
board.cache_hierarchy.cc_l3cache.ReadExReq.mshrMissLatency::processor.cores7.core.data       229770                       # number of ReadExReq MSHR miss ticks (Tick)
board.cache_hierarchy.cc_l3cache.ReadExReq.mshrMissLatency::total     18459522                       # number of ReadExReq MSHR miss ticks (Tick)
board.cache_hierarchy.cc_l3cache.ReadExReq.mshrMissRate::processor.cores0.core.data     0.972973                       # mshr miss rate for ReadExReq accesses (Ratio)
board.cache_hierarchy.cc_l3cache.ReadExReq.mshrMissRate::processor.cores1.core.data            1                       # mshr miss rate for ReadExReq accesses (Ratio)
board.cache_hierarchy.cc_l3cache.ReadExReq.mshrMissRate::processor.cores2.core.data            1                       # mshr miss rate for ReadExReq accesses (Ratio)
[...]
board.processor.cores7.core.cc_buffer.execute_buffer_occupancy_histogram::149            0      0.00%     88.16% # Distribution of decode buffer occupancy (Unspecified)
board.processor.cores7.core.cc_buffer.execute_buffer_occupancy_histogram::150            0      0.00%     88.16% # Distribution of decode buffer occupancy (Unspecified)
board.processor.cores7.core.cc_buffer.execute_buffer_occupancy_histogram::151            1      0.00%     88.17% # Distribution of decode buffer occupancy (Unspecified)
board.processor.cores7.core.cc_buffer.execute_buffer_occupancy_histogram::152            0      0.00%     88.17% # Distribution of decode buffer occupancy (Unspecified)
board.processor.cores7.core.cc_buffer.execute_buffer_occupancy_histogram::153            0      0.00%     88.17% # Distribution of decode buffer occupancy (Unspecified)
board.processor.cores7.core.cc_buffer.execute_buffer_occupancy_histogram::154            0      0.00%     88.17% # Distribution of decode buffer occupancy (Unspecified)
board.processor.cores7.core.cc_buffer.execute_buffer_occupancy_histogram::155            3      0.00%     88.17% # Distribution of decode buffer occupancy (Unspecified)
board.processor.cores7.core.cc_buffer.execute_buffer_occupancy_histogram::156            0      0.00%     88.17% # Distribution of decode buffer occupancy (Unspecified)
board.processor.cores7.core.cc_buffer.execute_buffer_occupancy_histogram::157            0      0.00%     88.17% # Distribution of decode buffer occupancy (Unspecified)
board.processor.cores7.core.cc_buffer.execute_buffer_occupancy_histogram::158            0      0.00%     88.17% # Distribution of decode buffer occupancy (Unspecified)
board.processor.cores7.core.cc_buffer.execute_buffer_occupancy_histogram::159            1      0.00%     88.17% # Distribution of decode buffer occupancy (Unspecified)
board.processor.cores7.core.cc_buffer.execute_buffer_occupancy_histogram::160            0      0.00%     88.17% # Distribution of decode buffer occupancy (Unspecified)
board.processor.cores7.core.cc_buffer.execute_buffer_occupancy_histogram::161            0      0.00%     88.17% # Distribution of decode buffer occupancy (Unspecified)
board.processor.cores7.core.cc_buffer.execute_buffer_occupancy_histogram::162            0      0.00%     88.17% # Distribution of decode buffer occupancy (Unspecified)
board.processor.cores7.core.cc_buffer.execute_buffer_occupancy_histogram::163            1      0.00%     88.17% # Distribution of decode buffer occupancy (Unspecified)
board.processor.cores7.core.cc_buffer.execute_buffer_occupancy_histogram::164            0      0.00%     88.17% # Distribution of decode buffer occupancy (Unspecified)
board.processor.cores7.core.cc_buffer.execute_buffer_occupancy_histogram::165            0      0.00%     88.17% # Distribution of decode buffer occupancy (Unspecified)
board.processor.cores7.core.cc_buffer.execute_buffer_occupancy_histogram::166            0      0.00%     88.17% # Distribution of decode buffer occupancy (Unspecified)
board.processor.cores7.core.cc_buffer.execute_buffer_occupancy_histogram::167            1      0.00%     88.17% # Distribution of decode buffer occupancy (Unspecified)
board.processor.cores7.core.cc_buffer.execute_buffer_occupancy_histogram::168            0      0.00%     88.17% # Distribution of decode buffer occupancy (Unspecified)
board.processor.cores7.core.cc_buffer.execute_buffer_occupancy_histogram::169            0      0.00%     88.17% # Distribution of decode buffer occupancy (Unspecified)
board.processor.cores7.core.cc_buffer.execute_buffer_occupancy_histogram::170            0      0.00%     88.17% # Distribution of decode buffer occupancy (Unspecified)
board.processor.cores7.core.cc_buffer.execute_buffer_occupancy_histogram::171            3      0.00%     88.18% # Distribution of decode buffer occupancy (Unspecified)
board.processor.cores7.core.cc_buffer.execute_buffer_occupancy_histogram::172            0      0.00%     88.18% # Distribution of decode buffer occupancy (Unspecified)
board.processor.cores7.core.cc_buffer.execute_buffer_occupancy_histogram::173            0      0.00%     88.18% # Distribution of decode buffer occupancy (Unspecified)
board.processor.cores7.core.cc_buffer.execute_buffer_occupancy_histogram::174            1      0.00%     88.18% # Distribution of decode buffer occupancy (Unspecified)
board.processor.cores7.core.cc_buffer.execute_buffer_occupancy_histogram::175            0      0.00%     88.18% # Distribution of decode buffer occupancy (Unspecified)
board.processor.cores7.core.cc_buffer.execute_buffer_occupancy_histogram::176            0      0.00%     88.18% # Distribution of decode buffer occupancy (Unspecified)
board.processor.cores7.core.cc_buffer.execute_buffer_occupancy_histogram::177            0      0.00%     88.18% # Distribution of decode buffer occupancy (Unspecified)
board.processor.cores7.core.cc_buffer.execute_buffer_occupancy_histogram::178            1      0.00%     88.18% # Distribution of decode buffer occupancy (Unspecified)
board.processor.cores7.core.cc_buffer.execute_buffer_occupancy_histogram::179            0      0.00%     88.18% # Distribution of decode buffer occupancy (Unspecified)
board.processor.cores7.core.cc_buffer.execute_buffer_occupancy_histogram::180            0      0.00%     88.18% # Distribution of decode buffer occupancy (Unspecified)
board.processor.cores7.core.cc_buffer.execute_buffer_occupancy_histogram::181            0      0.00%     88.18% # Distribution of decode buffer occupancy (Unspecified)
board.processor.cores7.core.cc_buffer.execute_buffer_occupancy_histogram::182            1      0.00%     88.18% # Distribution of decode buffer occupancy (Unspecified)
board.processor.cores7.core.cc_buffer.execute_buffer_occupancy_histogram::183            0      0.00%     88.18% # Distribution of decode buffer occupancy (Unspecified)
board.processor.cores7.core.cc_buffer.execute_buffer_occupancy_histogram::184            0      0.00%     88.18% # Distribution of decode buffer occupancy (Unspecified)
board.processor.cores7.core.cc_buffer.execute_buffer_occupancy_histogram::185            0      0.00%     88.18% # Distribution of decode buffer occupancy (Unspecified)
board.processor.cores7.core.cc_buffer.execute_buffer_occupancy_histogram::186            8      0.01%     88.20% # Distribution of decode buffer occupancy (Unspecified)
board.processor.cores7.core.cc_buffer.execute_buffer_occupancy_histogram::187            0      0.00%     88.20% # Distribution of decode buffer occupancy (Unspecified)
board.processor.cores7.core.cc_buffer.execute_buffer_occupancy_histogram::188            0      0.00%     88.20% # Distribution of decode buffer occupancy (Unspecified)
board.processor.cores7.core.cc_buffer.execute_buffer_occupancy_histogram::189            0      0.00%     88.20% # Distribution of decode buffer occupancy (Unspecified)
board.processor.cores7.core.cc_buffer.execute_buffer_occupancy_histogram::190            1      0.00%     88.20% # Distribution of decode buffer occupancy (Unspecified)
board.processor.cores7.core.cc_buffer.execute_buffer_occupancy_histogram::191            0      0.00%     88.20% # Distribution of decode buffer occupancy (Unspecified)
board.processor.cores7.core.cc_buffer.execute_buffer_occupancy_histogram::192            0      0.00%     88.20% # Distribution of decode buffer occupancy (Unspecified)
board.processor.cores7.core.cc_buffer.execute_buffer_occupancy_histogram::193            0      0.00%     88.20% # Distribution of decode buffer occupancy (Unspecified)
board.processor.cores7.core.cc_buffer.execute_buffer_occupancy_histogram::194            1      0.00%     88.20% # Distribution of decode buffer occupancy (Unspecified)
board.processor.cores7.core.cc_buffer.execute_buffer_occupancy_histogram::195            0      0.00%     88.20% # Distribution of decode buffer occupancy (Unspecified)
board.processor.cores7.core.cc_buffer.execute_buffer_occupancy_histogram::196            0      0.00%     88.20% # Distribution of decode buffer occupancy (Unspecified)
board.processor.cores7.core.cc_buffer.execute_buffer_occupancy_histogram::197            0      0.00%     88.20% # Distribution of decode buffer occupancy (Unspecified)
board.processor.cores7.core.cc_buffer.execute_buffer_occupancy_histogram::198            1      0.00%     88.20% # Distribution of decode buffer occupancy (Unspecified)
board.processor.cores7.core.cc_buffer.execute_buffer_occupancy_histogram::199            0      0.00%     88.20% # Distribution of decode buffer occupancy (Unspecified)
board.processor.cores7.core.cc_buffer.execute_buffer_occupancy_histogram::200            0      0.00%     88.20% # Distribution of decode buffer occupancy (Unspecified)
board.processor.cores7.core.cc_buffer.execute_buffer_occupancy_histogram::201            0      0.00%     88.20% # Distribution of decode buffer occupancy (Unspecified)
board.processor.cores7.core.cc_buffer.execute_buffer_occupancy_histogram::202           12      0.02%     88.22% # Distribution of decode buffer occupancy (Unspecified)
board.processor.cores7.core.cc_buffer.execute_buffer_occupancy_histogram::203            0      0.00%     88.22% # Distribution of decode buffer occupancy (Unspecified)
board.processor.cores7.core.cc_buffer.execute_buffer_occupancy_histogram::204            0      0.00%     88.22% # Distribution of decode buffer occupancy (Unspecified)
board.processor.cores7.core.cc_buffer.execute_buffer_occupancy_histogram::205            0      0.00%     88.22% # Distribution of decode buffer occupancy (Unspecified)
board.processor.cores7.core.cc_buffer.execute_buffer_occupancy_histogram::206            1      0.00%     88.22% # Distribution of decode buffer occupancy (Unspecified)
board.processor.cores7.core.cc_buffer.execute_buffer_occupancy_histogram::207            0      0.00%     88.22% # Distribution of decode buffer occupancy (Unspecified)
board.processor.cores7.core.cc_buffer.execute_buffer_occupancy_histogram::208            0      0.00%     88.22% # Distribution of decode buffer occupancy (Unspecified)
board.processor.cores7.core.cc_buffer.execute_buffer_occupancy_histogram::209            0      0.00%     88.22% # Distribution of decode buffer occupancy (Unspecified)
board.processor.cores7.core.cc_buffer.execute_buffer_occupancy_histogram::210            1      0.00%     88.22% # Distribution of decode buffer occupancy (Unspecified)
board.processor.cores7.core.cc_buffer.execute_buffer_occupancy_histogram::211            0      0.00%     88.22% # Distribution of decode buffer occupancy (Unspecified)
board.processor.cores7.core.cc_buffer.execute_buffer_occupancy_histogram::212            0      0.00%     88.22% # Distribution of decode buffer occupancy (Unspecified)
board.processor.cores7.core.cc_buffer.execute_buffer_occupancy_histogram::213            0      0.00%     88.22% # Distribution of decode buffer occupancy (Unspecified)
board.processor.cores7.core.cc_buffer.execute_buffer_occupancy_histogram::214            1      0.00%     88.23% # Distribution of decode buffer occupancy (Unspecified)
board.processor.cores7.core.cc_buffer.execute_buffer_occupancy_histogram::215            0      0.00%     88.23% # Distribution of decode buffer occupancy (Unspecified)
board.processor.cores7.core.cc_buffer.execute_buffer_occupancy_histogram::216            0      0.00%     88.23% # Distribution of decode buffer occupancy (Unspecified)
board.processor.cores7.core.cc_buffer.execute_buffer_occupancy_histogram::217            0      0.00%     88.23% # Distribution of decode buffer occupancy (Unspecified)
board.processor.cores7.core.cc_buffer.execute_buffer_occupancy_histogram::218            3      0.00%     88.23% # Distribution of decode buffer occupancy (Unspecified)
board.processor.cores7.core.cc_buffer.execute_buffer_occupancy_histogram::219            0      0.00%     88.23% # Distribution of decode buffer occupancy (Unspecified)
board.processor.cores7.core.cc_buffer.execute_buffer_occupancy_histogram::220            0      0.00%     88.23% # Distribution of decode buffer occupancy (Unspecified)
board.processor.cores7.core.cc_buffer.execute_buffer_occupancy_histogram::221            0      0.00%     88.23% # Distribution of decode buffer occupancy (Unspecified)
board.processor.cores7.core.cc_buffer.execute_buffer_occupancy_histogram::222            1      0.00%     88.23% # Distribution of decode buffer occupancy (Unspecified)
board.processor.cores7.core.cc_buffer.execute_buffer_occupancy_histogram::223            0      0.00%     88.23% # Distribution of decode buffer occupancy (Unspecified)
board.processor.cores7.core.cc_buffer.execute_buffer_occupancy_histogram::224            0      0.00%     88.23% # Distribution of decode buffer occupancy (Unspecified)
board.processor.cores7.core.cc_buffer.execute_buffer_occupancy_histogram::225            0      0.00%     88.23% # Distribution of decode buffer occupancy (Unspecified)
board.processor.cores7.core.cc_buffer.execute_buffer_occupancy_histogram::226            1      0.00%     88.23% # Distribution of decode buffer occupancy (Unspecified)
board.processor.cores7.core.cc_buffer.execute_buffer_occupancy_histogram::227            0      0.00%     88.23% # Distribution of decode buffer occupancy (Unspecified)
board.processor.cores7.core.cc_buffer.execute_buffer_occupancy_histogram::228            0      0.00%     88.23% # Distribution of decode buffer occupancy (Unspecified)
board.processor.cores7.core.cc_buffer.execute_buffer_occupancy_histogram::229            0      0.00%     88.23% # Distribution of decode buffer occupancy (Unspecified)
board.processor.cores7.core.cc_buffer.execute_buffer_occupancy_histogram::230            1      0.00%     88.24% # Distribution of decode buffer occupancy (Unspecified)
board.processor.cores7.core.cc_buffer.execute_buffer_occupancy_histogram::231            0      0.00%     88.24% # Distribution of decode buffer occupancy (Unspecified)
board.processor.cores7.core.cc_buffer.execute_buffer_occupancy_histogram::232            0      0.00%     88.24% # Distribution of decode buffer occupancy (Unspecified)
board.processor.cores7.core.cc_buffer.execute_buffer_occupancy_histogram::233            0      0.00%     88.24% # Distribution of decode buffer occupancy (Unspecified)
board.processor.cores7.core.cc_buffer.execute_buffer_occupancy_histogram::234            2      0.00%     88.24% # Distribution of decode buffer occupancy (Unspecified)
board.processor.cores7.core.cc_buffer.execute_buffer_occupancy_histogram::235            0      0.00%     88.24% # Distribution of decode buffer occupancy (Unspecified)
board.processor.cores7.core.cc_buffer.execute_buffer_occupancy_histogram::236            0      0.00%     88.24% # Distribution of decode buffer occupancy (Unspecified)
board.processor.cores7.core.cc_buffer.execute_buffer_occupancy_histogram::237            0      0.00%     88.24% # Distribution of decode buffer occupancy (Unspecified)
board.processor.cores7.core.cc_buffer.execute_buffer_occupancy_histogram::238            1      0.00%     88.24% # Distribution of decode buffer occupancy (Unspecified)
board.processor.cores7.core.cc_buffer.execute_buffer_occupancy_histogram::239            0      0.00%     88.24% # Distribution of decode buffer occupancy (Unspecified)
board.processor.cores7.core.cc_buffer.execute_buffer_occupancy_histogram::240            0      0.00%     88.24% # Distribution of decode buffer occupancy (Unspecified)
board.processor.cores7.core.cc_buffer.execute_buffer_occupancy_histogram::241            0      0.00%     88.24% # Distribution of decode buffer occupancy (Unspecified)
board.processor.cores7.core.cc_buffer.execute_buffer_occupancy_histogram::242            1      0.00%     88.24% # Distribution of decode buffer occupancy (Unspecified)
board.processor.cores7.core.cc_buffer.execute_buffer_occupancy_histogram::243            0      0.00%     88.24% # Distribution of decode buffer occupancy (Unspecified)
board.processor.cores7.core.cc_buffer.execute_buffer_occupancy_histogram::244            0      0.00%     88.24% # Distribution of decode buffer occupancy (Unspecified)
board.processor.cores7.core.cc_buffer.execute_buffer_occupancy_histogram::245            0      0.00%     88.24% # Distribution of decode buffer occupancy (Unspecified)
board.processor.cores7.core.cc_buffer.execute_buffer_occupancy_histogram::246            2      0.00%     88.25% # Distribution of decode buffer occupancy (Unspecified)
board.processor.cores7.core.cc_buffer.execute_buffer_occupancy_histogram::247            2      0.00%     88.25% # Distribution of decode buffer occupancy (Unspecified)
board.processor.cores7.core.cc_buffer.execute_buffer_occupancy_histogram::248          819      1.32%     89.57% # Distribution of decode buffer occupancy (Unspecified)
board.processor.cores7.core.cc_buffer.execute_buffer_occupancy_histogram::249         1792      2.89%     92.46% # Distribution of decode buffer occupancy (Unspecified)
board.processor.cores7.core.cc_buffer.execute_buffer_occupancy_histogram::250         1888      3.05%     95.51% # Distribution of decode buffer occupancy (Unspecified)
board.processor.cores7.core.cc_buffer.execute_buffer_occupancy_histogram::251         1869      3.02%     98.53% # Distribution of decode buffer occupancy (Unspecified)
board.processor.cores7.core.cc_buffer.execute_buffer_occupancy_histogram::252          306      0.49%     99.02% # Distribution of decode buffer occupancy (Unspecified)
board.processor.cores7.core.cc_buffer.execute_buffer_occupancy_histogram::253           11      0.02%     99.04% # Distribution of decode buffer occupancy (Unspecified)
board.processor.cores7.core.cc_buffer.execute_buffer_occupancy_histogram::254           46      0.07%     99.11% # Distribution of decode buffer occupancy (Unspecified)
board.processor.cores7.core.cc_buffer.execute_buffer_occupancy_histogram::255           45      0.07%     99.18% # Distribution of decode buffer occupancy (Unspecified)
board.processor.cores7.core.cc_buffer.execute_buffer_occupancy_histogram::256          506      0.82%    100.00% # Distribution of decode buffer occupancy (Unspecified)
board.processor.cores7.core.cc_buffer.execute_buffer_occupancy_histogram::overflows            0      0.00%    100.00% # Distribution of decode buffer occupancy (Unspecified)
board.processor.cores7.core.cc_buffer.execute_buffer_occupancy_histogram::min_value            0                       # Distribution of decode buffer occupancy (Unspecified)
board.processor.cores7.core.cc_buffer.execute_buffer_occupancy_histogram::max_value          256                       # Distribution of decode buffer occupancy (Unspecified)
board.processor.cores7.core.cc_buffer.execute_buffer_occupancy_histogram::total        61969                       # Distribution of decode buffer occupancy (Unspecified)
board.processor.cores7.core.cc_buffer.execute_old_inst_not_finished         2809                       # Number of times execute buffer paused due to oldest insts not being finished executing (Unspecified)
board.processor.cores7.core.cc_buffer.num_fault_insts           19                       # Number of fault insts executed (Unspecified)
board.processor.cores7.core.cc_buffer.num_unknown_insts            0                       # Number of unknown insts executed (Unspecified)
board.processor.cores7.core.cc_buffer.ooo_stall_signals        29295                       # Number of cycles stalled due to buffer (Unspecified)
board.processor.cores7.core.cc_buffer.regfile_bandwidth_reached         3888                       # Number of times execute buffer paused due to bandwidth reached (Unspecified)
board.processor.cores7.core.cc_buffer.regfile_insts_processed        21446                       # Number of insts regfile has processes (Unspecified)

---------- End Simulation Statistics   ----------
