
---------- Begin Simulation Statistics ----------
simSeconds                                   0.000074                       # Number of seconds simulated (Second)
simTicks                                     73628631                       # Number of ticks simulated (Tick)
finalTick                                    73628631                       # Number of ticks from beginning of simulation (restored from checkpoints and never reset) (Tick)
simFreq                                  1000000000000                       # The number of ticks per simulated second ((Tick/Second))
hostSeconds                                      7.54                       # Real time elapsed on the host (Second)
hostTickRate                                  9770763                       # The number of ticks simulated per host second (ticks/s) ((Tick/Second))
hostMemory                                    8927064                       # Number of bytes of host memory used (Byte)
simInsts                                       291224                       # Number of instructions simulated (Count)
simOps                                         498674                       # Number of ops (including micro ops) simulated (Count)
hostInstRate                                    38645                       # Simulator instruction rate (inst/s) ((Count/Second))
hostOpRate                                      66173                       # Simulator op (including micro ops) rate (op/s) ((Count/Second))
board.cache_hierarchy.cc_l3cache.demandHits::cache_hierarchy.l1dcaches0.prefetcher           11                       # number of demand (read+write) hits (Count)
board.cache_hierarchy.cc_l3cache.demandHits::cache_hierarchy.l2cache.prefetcher            9                       # number of demand (read+write) hits (Count)
board.cache_hierarchy.cc_l3cache.demandHits::processor.cores0.core.data           12                       # number of demand (read+write) hits (Count)
board.cache_hierarchy.cc_l3cache.demandHits::processor.cores0.core.cc_buffer        25164                       # number of demand (read+write) hits (Count)
board.cache_hierarchy.cc_l3cache.demandHits::processor.cores1.core.cc_buffer         7611                       # number of demand (read+write) hits (Count)
board.cache_hierarchy.cc_l3cache.demandHits::processor.cores2.core.cc_buffer         7096                       # number of demand (read+write) hits (Count)
board.cache_hierarchy.cc_l3cache.demandHits::processor.cores3.core.cc_buffer         6528                       # number of demand (read+write) hits (Count)
board.cache_hierarchy.cc_l3cache.demandHits::processor.cores4.core.cc_buffer         6012                       # number of demand (read+write) hits (Count)
board.cache_hierarchy.cc_l3cache.demandHits::processor.cores5.core.cc_buffer         5781                       # number of demand (read+write) hits (Count)
board.cache_hierarchy.cc_l3cache.demandHits::processor.cores6.core.cc_buffer         4920                       # number of demand (read+write) hits (Count)
board.cache_hierarchy.cc_l3cache.demandHits::processor.cores7.core.cc_buffer         4396                       # number of demand (read+write) hits (Count)
board.cache_hierarchy.cc_l3cache.demandHits::total        67540                       # number of demand (read+write) hits (Count)
board.cache_hierarchy.cc_l3cache.overallHits::cache_hierarchy.l1dcaches0.prefetcher           11                       # number of overall hits (Count)
board.cache_hierarchy.cc_l3cache.overallHits::cache_hierarchy.l2cache.prefetcher            9                       # number of overall hits (Count)
board.cache_hierarchy.cc_l3cache.overallHits::processor.cores0.core.data           12                       # number of overall hits (Count)
board.cache_hierarchy.cc_l3cache.overallHits::processor.cores0.core.cc_buffer        25164                       # number of overall hits (Count)
board.cache_hierarchy.cc_l3cache.overallHits::processor.cores1.core.cc_buffer         7611                       # number of overall hits (Count)
board.cache_hierarchy.cc_l3cache.overallHits::processor.cores2.core.cc_buffer         7096                       # number of overall hits (Count)
board.cache_hierarchy.cc_l3cache.overallHits::processor.cores3.core.cc_buffer         6528                       # number of overall hits (Count)
board.cache_hierarchy.cc_l3cache.overallHits::processor.cores4.core.cc_buffer         6012                       # number of overall hits (Count)
board.cache_hierarchy.cc_l3cache.overallHits::processor.cores5.core.cc_buffer         5781                       # number of overall hits (Count)
board.cache_hierarchy.cc_l3cache.overallHits::processor.cores6.core.cc_buffer         4920                       # number of overall hits (Count)
board.cache_hierarchy.cc_l3cache.overallHits::processor.cores7.core.cc_buffer         4396                       # number of overall hits (Count)
board.cache_hierarchy.cc_l3cache.overallHits::total        67540                       # number of overall hits (Count)
board.cache_hierarchy.cc_l3cache.demandMisses::cache_hierarchy.l1dcaches0.prefetcher           67                       # number of demand (read+write) misses (Count)
board.cache_hierarchy.cc_l3cache.demandMisses::cache_hierarchy.l1dcaches7.prefetcher            1                       # number of demand (read+write) misses (Count)
board.cache_hierarchy.cc_l3cache.demandMisses::cache_hierarchy.l2cache.prefetcher          112                       # number of demand (read+write) misses (Count)
board.cache_hierarchy.cc_l3cache.demandMisses::processor.cores0.core.inst          952                       # number of demand (read+write) misses (Count)
board.cache_hierarchy.cc_l3cache.demandMisses::processor.cores0.core.data          463                       # number of demand (read+write) misses (Count)
board.cache_hierarchy.cc_l3cache.demandMisses::processor.cores1.core.inst           19                       # number of demand (read+write) misses (Count)
board.cache_hierarchy.cc_l3cache.demandMisses::processor.cores1.core.data            6                       # number of demand (read+write) misses (Count)
board.cache_hierarchy.cc_l3cache.demandMisses::processor.cores2.core.inst            6                       # number of demand (read+write) misses (Count)
board.cache_hierarchy.cc_l3cache.demandMisses::processor.cores2.core.data            7                       # number of demand (read+write) misses (Count)
board.cache_hierarchy.cc_l3cache.demandMisses::processor.cores3.core.inst            2                       # number of demand (read+write) misses (Count)
board.cache_hierarchy.cc_l3cache.demandMisses::processor.cores3.core.data            6                       # number of demand (read+write) misses (Count)
board.cache_hierarchy.cc_l3cache.demandMisses::processor.cores4.core.inst            1                       # number of demand (read+write) misses (Count)
board.cache_hierarchy.cc_l3cache.demandMisses::processor.cores4.core.data            6                       # number of demand (read+write) misses (Count)
board.cache_hierarchy.cc_l3cache.demandMisses::processor.cores5.core.data            6                       # number of demand (read+write) misses (Count)
board.cache_hierarchy.cc_l3cache.demandMisses::processor.cores6.core.inst            3                       # number of demand (read+write) misses (Count)
board.cache_hierarchy.cc_l3cache.demandMisses::processor.cores6.core.data            6                       # number of demand (read+write) misses (Count)
board.cache_hierarchy.cc_l3cache.demandMisses::processor.cores7.core.inst            2                       # number of demand (read+write) misses (Count)
board.cache_hierarchy.cc_l3cache.demandMisses::processor.cores7.core.data            6                       # number of demand (read+write) misses (Count)
board.cache_hierarchy.cc_l3cache.demandMisses::processor.cores0.core.cc_buffer         1294                       # number of demand (read+write) misses (Count)
board.cache_hierarchy.cc_l3cache.demandMisses::processor.cores1.core.cc_buffer           11                       # number of demand (read+write) misses (Count)
board.cache_hierarchy.cc_l3cache.demandMisses::processor.cores2.core.cc_buffer           18                       # number of demand (read+write) misses (Count)
board.cache_hierarchy.cc_l3cache.demandMisses::processor.cores3.core.cc_buffer           18                       # number of demand (read+write) misses (Count)
board.cache_hierarchy.cc_l3cache.demandMisses::processor.cores4.core.cc_buffer           18                       # number of demand (read+write) misses (Count)
board.cache_hierarchy.cc_l3cache.demandMisses::processor.cores5.core.cc_buffer           18                       # number of demand (read+write) misses (Count)
board.cache_hierarchy.cc_l3cache.demandMisses::processor.cores6.core.cc_buffer           18                       # number of demand (read+write) misses (Count)
board.cache_hierarchy.cc_l3cache.demandMisses::processor.cores7.core.cc_buffer           18                       # number of demand (read+write) misses (Count)
board.cache_hierarchy.cc_l3cache.demandMisses::total         3084                       # number of demand (read+write) misses (Count)
board.cache_hierarchy.cc_l3cache.overallMisses::cache_hierarchy.l1dcaches0.prefetcher           67                       # number of overall misses (Count)
board.cache_hierarchy.cc_l3cache.overallMisses::cache_hierarchy.l1dcaches7.prefetcher            1                       # number of overall misses (Count)
board.cache_hierarchy.cc_l3cache.overallMisses::cache_hierarchy.l2cache.prefetcher          112                       # number of overall misses (Count)
board.cache_hierarchy.cc_l3cache.overallMisses::processor.cores0.core.inst          952                       # number of overall misses (Count)
board.cache_hierarchy.cc_l3cache.overallMisses::processor.cores0.core.data          463                       # number of overall misses (Count)
board.cache_hierarchy.cc_l3cache.overallMisses::processor.cores1.core.inst           19                       # number of overall misses (Count)
board.cache_hierarchy.cc_l3cache.overallMisses::processor.cores1.core.data            6                       # number of overall misses (Count)
board.cache_hierarchy.cc_l3cache.overallMisses::processor.cores2.core.inst            6                       # number of overall misses (Count)
board.cache_hierarchy.cc_l3cache.overallMisses::processor.cores2.core.data            7                       # number of overall misses (Count)
board.cache_hierarchy.cc_l3cache.overallMisses::processor.cores3.core.inst            2                       # number of overall misses (Count)
board.cache_hierarchy.cc_l3cache.overallMisses::processor.cores3.core.data            6                       # number of overall misses (Count)
board.cache_hierarchy.cc_l3cache.overallMisses::processor.cores4.core.inst            1                       # number of overall misses (Count)
board.cache_hierarchy.cc_l3cache.overallMisses::processor.cores4.core.data            6                       # number of overall misses (Count)
board.cache_hierarchy.cc_l3cache.overallMisses::processor.cores5.core.data            6                       # number of overall misses (Count)
board.cache_hierarchy.cc_l3cache.overallMisses::processor.cores6.core.inst            3                       # number of overall misses (Count)
board.cache_hierarchy.cc_l3cache.overallMisses::processor.cores6.core.data            6                       # number of overall misses (Count)
board.cache_hierarchy.cc_l3cache.overallMisses::processor.cores7.core.inst            2                       # number of overall misses (Count)
board.cache_hierarchy.cc_l3cache.overallMisses::processor.cores7.core.data            6                       # number of overall misses (Count)
board.cache_hierarchy.cc_l3cache.overallMisses::processor.cores0.core.cc_buffer         1294                       # number of overall misses (Count)
board.cache_hierarchy.cc_l3cache.overallMisses::processor.cores1.core.cc_buffer           11                       # number of overall misses (Count)
board.cache_hierarchy.cc_l3cache.overallMisses::processor.cores2.core.cc_buffer           18                       # number of overall misses (Count)
board.cache_hierarchy.cc_l3cache.overallMisses::processor.cores3.core.cc_buffer           18                       # number of overall misses (Count)
board.cache_hierarchy.cc_l3cache.overallMisses::processor.cores4.core.cc_buffer           18                       # number of overall misses (Count)
board.cache_hierarchy.cc_l3cache.overallMisses::processor.cores5.core.cc_buffer           18                       # number of overall misses (Count)
board.cache_hierarchy.cc_l3cache.overallMisses::processor.cores6.core.cc_buffer           18                       # number of overall misses (Count)
board.cache_hierarchy.cc_l3cache.overallMisses::processor.cores7.core.cc_buffer           18                       # number of overall misses (Count)
board.cache_hierarchy.cc_l3cache.overallMisses::total         3084                       # number of overall misses (Count)
board.cache_hierarchy.cc_l3cache.demandMissLatency::cache_hierarchy.l1dcaches0.prefetcher      6366967                       # number of demand (read+write) miss ticks (Tick)
board.cache_hierarchy.cc_l3cache.demandMissLatency::cache_hierarchy.l1dcaches7.prefetcher        73593                       # number of demand (read+write) miss ticks (Tick)
board.cache_hierarchy.cc_l3cache.demandMissLatency::cache_hierarchy.l2cache.prefetcher      9657632                       # number of demand (read+write) miss ticks (Tick)
board.cache_hierarchy.cc_l3cache.demandMissLatency::processor.cores0.core.inst     53832114                       # number of demand (read+write) miss ticks (Tick)
board.cache_hierarchy.cc_l3cache.demandMissLatency::processor.cores0.core.data     29291679                       # number of demand (read+write) miss ticks (Tick)
board.cache_hierarchy.cc_l3cache.demandMissLatency::processor.cores1.core.inst      1102230                       # number of demand (read+write) miss ticks (Tick)
board.cache_hierarchy.cc_l3cache.demandMissLatency::processor.cores1.core.data       388944                       # number of demand (read+write) miss ticks (Tick)
board.cache_hierarchy.cc_l3cache.demandMissLatency::processor.cores2.core.inst       400599                       # number of demand (read+write) miss ticks (Tick)
board.cache_hierarchy.cc_l3cache.demandMissLatency::processor.cores2.core.data       393606                       # number of demand (read+write) miss ticks (Tick)
board.cache_hierarchy.cc_l3cache.demandMissLatency::processor.cores3.core.inst       119880                       # number of demand (read+write) miss ticks (Tick)
board.cache_hierarchy.cc_l3cache.demandMissLatency::processor.cores3.core.data       319347                       # number of demand (read+write) miss ticks (Tick)
board.cache_hierarchy.cc_l3cache.demandMissLatency::processor.cores4.core.inst        46287                       # number of demand (read+write) miss ticks (Tick)
board.cache_hierarchy.cc_l3cache.demandMissLatency::processor.cores4.core.data       293040                       # number of demand (read+write) miss ticks (Tick)
board.cache_hierarchy.cc_l3cache.demandMissLatency::processor.cores5.core.data       307692                       # number of demand (read+write) miss ticks (Tick)
board.cache_hierarchy.cc_l3cache.demandMissLatency::processor.cores6.core.inst       138861                       # number of demand (read+write) miss ticks (Tick)
board.cache_hierarchy.cc_l3cache.demandMissLatency::processor.cores6.core.data       323676                       # number of demand (read+write) miss ticks (Tick)
board.cache_hierarchy.cc_l3cache.demandMissLatency::processor.cores7.core.inst       133533                       # number of demand (read+write) miss ticks (Tick)
board.cache_hierarchy.cc_l3cache.demandMissLatency::processor.cores7.core.data       277722                       # number of demand (read+write) miss ticks (Tick)
board.cache_hierarchy.cc_l3cache.demandMissLatency::total    103467402                       # number of demand (read+write) miss ticks (Tick)
board.cache_hierarchy.cc_l3cache.overallMissLatency::cache_hierarchy.l1dcaches0.prefetcher      6366967                       # number of overall miss ticks (Tick)
board.cache_hierarchy.cc_l3cache.overallMissLatency::cache_hierarchy.l1dcaches7.prefetcher        73593                       # number of overall miss ticks (Tick)
board.cache_hierarchy.cc_l3cache.overallMissLatency::cache_hierarchy.l2cache.prefetcher      9657632                       # number of overall miss ticks (Tick)
board.cache_hierarchy.cc_l3cache.overallMissLatency::processor.cores0.core.inst     53832114                       # number of overall miss ticks (Tick)
board.cache_hierarchy.cc_l3cache.overallMissLatency::processor.cores0.core.data     29291679                       # number of overall miss ticks (Tick)
board.cache_hierarchy.cc_l3cache.overallMissLatency::processor.cores1.core.inst      1102230                       # number of overall miss ticks (Tick)
board.cache_hierarchy.cc_l3cache.overallMissLatency::processor.cores1.core.data       388944                       # number of overall miss ticks (Tick)
board.cache_hierarchy.cc_l3cache.overallMissLatency::processor.cores2.core.inst       400599                       # number of overall miss ticks (Tick)
board.cache_hierarchy.cc_l3cache.overallMissLatency::processor.cores2.core.data       393606                       # number of overall miss ticks (Tick)
board.cache_hierarchy.cc_l3cache.overallMissLatency::processor.cores3.core.inst       119880                       # number of overall miss ticks (Tick)
board.cache_hierarchy.cc_l3cache.overallMissLatency::processor.cores3.core.data       319347                       # number of overall miss ticks (Tick)
board.cache_hierarchy.cc_l3cache.overallMissLatency::processor.cores4.core.inst        46287                       # number of overall miss ticks (Tick)
board.cache_hierarchy.cc_l3cache.overallMissLatency::processor.cores4.core.data       293040                       # number of overall miss ticks (Tick)
board.cache_hierarchy.cc_l3cache.overallMissLatency::processor.cores5.core.data       307692                       # number of overall miss ticks (Tick)
board.cache_hierarchy.cc_l3cache.overallMissLatency::processor.cores6.core.inst       138861                       # number of overall miss ticks (Tick)
board.cache_hierarchy.cc_l3cache.overallMissLatency::processor.cores6.core.data       323676                       # number of overall miss ticks (Tick)
board.cache_hierarchy.cc_l3cache.overallMissLatency::processor.cores7.core.inst       133533                       # number of overall miss ticks (Tick)
board.cache_hierarchy.cc_l3cache.overallMissLatency::processor.cores7.core.data       277722                       # number of overall miss ticks (Tick)
board.cache_hierarchy.cc_l3cache.overallMissLatency::total    103467402                       # number of overall miss ticks (Tick)
board.cache_hierarchy.cc_l3cache.demandAccesses::cache_hierarchy.l1dcaches0.prefetcher           78                       # number of demand (read+write) accesses (Count)
board.cache_hierarchy.cc_l3cache.demandAccesses::cache_hierarchy.l1dcaches7.prefetcher            1                       # number of demand (read+write) accesses (Count)
board.cache_hierarchy.cc_l3cache.demandAccesses::cache_hierarchy.l2cache.prefetcher          121                       # number of demand (read+write) accesses (Count)
board.cache_hierarchy.cc_l3cache.demandAccesses::processor.cores0.core.inst          952                       # number of demand (read+write) accesses (Count)
board.cache_hierarchy.cc_l3cache.demandAccesses::processor.cores0.core.data          475                       # number of demand (read+write) accesses (Count)
board.cache_hierarchy.cc_l3cache.demandAccesses::processor.cores1.core.inst           19                       # number of demand (read+write) accesses (Count)
board.cache_hierarchy.cc_l3cache.demandAccesses::processor.cores1.core.data            6                       # number of demand (read+write) accesses (Count)
board.cache_hierarchy.cc_l3cache.demandAccesses::processor.cores2.core.inst            6                       # number of demand (read+write) accesses (Count)
board.cache_hierarchy.cc_l3cache.demandAccesses::processor.cores2.core.data            7                       # number of demand (read+write) accesses (Count)
board.cache_hierarchy.cc_l3cache.demandAccesses::processor.cores3.core.inst            2                       # number of demand (read+write) accesses (Count)
board.cache_hierarchy.cc_l3cache.demandAccesses::processor.cores3.core.data            6                       # number of demand (read+write) accesses (Count)
board.cache_hierarchy.cc_l3cache.demandAccesses::processor.cores4.core.inst            1                       # number of demand (read+write) accesses (Count)
board.cache_hierarchy.cc_l3cache.demandAccesses::processor.cores4.core.data            6                       # number of demand (read+write) accesses (Count)
board.cache_hierarchy.cc_l3cache.demandAccesses::processor.cores5.core.data            6                       # number of demand (read+write) accesses (Count)
board.cache_hierarchy.cc_l3cache.demandAccesses::processor.cores6.core.inst            3                       # number of demand (read+write) accesses (Count)
board.cache_hierarchy.cc_l3cache.demandAccesses::processor.cores6.core.data            6                       # number of demand (read+write) accesses (Count)
board.cache_hierarchy.cc_l3cache.demandAccesses::processor.cores7.core.inst            2                       # number of demand (read+write) accesses (Count)
board.cache_hierarchy.cc_l3cache.demandAccesses::processor.cores7.core.data            6                       # number of demand (read+write) accesses (Count)
board.cache_hierarchy.cc_l3cache.demandAccesses::processor.cores0.core.cc_buffer        26458                       # number of demand (read+write) accesses (Count)
board.cache_hierarchy.cc_l3cache.demandAccesses::processor.cores1.core.cc_buffer         7622                       # number of demand (read+write) accesses (Count)
board.cache_hierarchy.cc_l3cache.demandAccesses::processor.cores2.core.cc_buffer         7114                       # number of demand (read+write) accesses (Count)
board.cache_hierarchy.cc_l3cache.demandAccesses::processor.cores3.core.cc_buffer         6546                       # number of demand (read+write) accesses (Count)
board.cache_hierarchy.cc_l3cache.demandAccesses::processor.cores4.core.cc_buffer         6030                       # number of demand (read+write) accesses (Count)
board.cache_hierarchy.cc_l3cache.demandAccesses::processor.cores5.core.cc_buffer         5799                       # number of demand (read+write) accesses (Count)
board.cache_hierarchy.cc_l3cache.demandAccesses::processor.cores6.core.cc_buffer         4938                       # number of demand (read+write) accesses (Count)
board.cache_hierarchy.cc_l3cache.demandAccesses::processor.cores7.core.cc_buffer         4414                       # number of demand (read+write) accesses (Count)
board.cache_hierarchy.cc_l3cache.demandAccesses::total        70624                       # number of demand (read+write) accesses (Count)
board.cache_hierarchy.cc_l3cache.overallAccesses::cache_hierarchy.l1dcaches0.prefetcher           78                       # number of overall (read+write) accesses (Count)
board.cache_hierarchy.cc_l3cache.overallAccesses::cache_hierarchy.l1dcaches7.prefetcher            1                       # number of overall (read+write) accesses (Count)
board.cache_hierarchy.cc_l3cache.overallAccesses::cache_hierarchy.l2cache.prefetcher          121                       # number of overall (read+write) accesses (Count)
board.cache_hierarchy.cc_l3cache.overallAccesses::processor.cores0.core.inst          952                       # number of overall (read+write) accesses (Count)
board.cache_hierarchy.cc_l3cache.overallAccesses::processor.cores0.core.data          475                       # number of overall (read+write) accesses (Count)
board.cache_hierarchy.cc_l3cache.overallAccesses::processor.cores1.core.inst           19                       # number of overall (read+write) accesses (Count)
board.cache_hierarchy.cc_l3cache.overallAccesses::processor.cores1.core.data            6                       # number of overall (read+write) accesses (Count)
board.cache_hierarchy.cc_l3cache.overallAccesses::processor.cores2.core.inst            6                       # number of overall (read+write) accesses (Count)
board.cache_hierarchy.cc_l3cache.overallAccesses::processor.cores2.core.data            7                       # number of overall (read+write) accesses (Count)
board.cache_hierarchy.cc_l3cache.overallAccesses::processor.cores3.core.inst            2                       # number of overall (read+write) accesses (Count)
board.cache_hierarchy.cc_l3cache.overallAccesses::processor.cores3.core.data            6                       # number of overall (read+write) accesses (Count)
board.cache_hierarchy.cc_l3cache.overallAccesses::processor.cores4.core.inst            1                       # number of overall (read+write) accesses (Count)
board.cache_hierarchy.cc_l3cache.overallAccesses::processor.cores4.core.data            6                       # number of overall (read+write) accesses (Count)
board.cache_hierarchy.cc_l3cache.overallAccesses::processor.cores5.core.data            6                       # number of overall (read+write) accesses (Count)
board.cache_hierarchy.cc_l3cache.overallAccesses::processor.cores6.core.inst            3                       # number of overall (read+write) accesses (Count)
board.cache_hierarchy.cc_l3cache.overallAccesses::processor.cores6.core.data            6                       # number of overall (read+write) accesses (Count)
board.cache_hierarchy.cc_l3cache.overallAccesses::processor.cores7.core.inst            2                       # number of overall (read+write) accesses (Count)
board.cache_hierarchy.cc_l3cache.overallAccesses::processor.cores7.core.data            6                       # number of overall (read+write) accesses (Count)
board.cache_hierarchy.cc_l3cache.overallAccesses::processor.cores0.core.cc_buffer        26458                       # number of overall (read+write) accesses (Count)
board.cache_hierarchy.cc_l3cache.overallAccesses::processor.cores1.core.cc_buffer         7622                       # number of overall (read+write) accesses (Count)
board.cache_hierarchy.cc_l3cache.overallAccesses::processor.cores2.core.cc_buffer         7114                       # number of overall (read+write) accesses (Count)
board.cache_hierarchy.cc_l3cache.overallAccesses::processor.cores3.core.cc_buffer         6546                       # number of overall (read+write) accesses (Count)
board.cache_hierarchy.cc_l3cache.overallAccesses::processor.cores4.core.cc_buffer         6030                       # number of overall (read+write) accesses (Count)
board.cache_hierarchy.cc_l3cache.overallAccesses::processor.cores5.core.cc_buffer         5799                       # number of overall (read+write) accesses (Count)
board.cache_hierarchy.cc_l3cache.overallAccesses::processor.cores6.core.cc_buffer         4938                       # number of overall (read+write) accesses (Count)
board.cache_hierarchy.cc_l3cache.overallAccesses::processor.cores7.core.cc_buffer         4414                       # number of overall (read+write) accesses (Count)
board.cache_hierarchy.cc_l3cache.overallAccesses::total        70624                       # number of overall (read+write) accesses (Count)
board.cache_hierarchy.cc_l3cache.demandMissRate::cache_hierarchy.l1dcaches0.prefetcher     0.858974                       # miss rate for demand accesses (Ratio)
board.cache_hierarchy.cc_l3cache.demandMissRate::cache_hierarchy.l1dcaches7.prefetcher            1                       # miss rate for demand accesses (Ratio)
board.cache_hierarchy.cc_l3cache.demandMissRate::cache_hierarchy.l2cache.prefetcher     0.925620                       # miss rate for demand accesses (Ratio)
board.cache_hierarchy.cc_l3cache.demandMissRate::processor.cores0.core.inst            1                       # miss rate for demand accesses (Ratio)
board.cache_hierarchy.cc_l3cache.demandMissRate::processor.cores0.core.data     0.974737                       # miss rate for demand accesses (Ratio)
board.cache_hierarchy.cc_l3cache.demandMissRate::processor.cores1.core.inst            1                       # miss rate for demand accesses (Ratio)
board.cache_hierarchy.cc_l3cache.demandMissRate::processor.cores1.core.data            1                       # miss rate for demand accesses (Ratio)
board.cache_hierarchy.cc_l3cache.demandMissRate::processor.cores2.core.inst            1                       # miss rate for demand accesses (Ratio)
board.cache_hierarchy.cc_l3cache.demandMissRate::processor.cores2.core.data            1                       # miss rate for demand accesses (Ratio)
board.cache_hierarchy.cc_l3cache.demandMissRate::processor.cores3.core.inst            1                       # miss rate for demand accesses (Ratio)
board.cache_hierarchy.cc_l3cache.demandMissRate::processor.cores3.core.data            1                       # miss rate for demand accesses (Ratio)
board.cache_hierarchy.cc_l3cache.demandMissRate::processor.cores4.core.inst            1                       # miss rate for demand accesses (Ratio)
board.cache_hierarchy.cc_l3cache.demandMissRate::processor.cores4.core.data            1                       # miss rate for demand accesses (Ratio)
board.cache_hierarchy.cc_l3cache.demandMissRate::processor.cores5.core.data            1                       # miss rate for demand accesses (Ratio)
board.cache_hierarchy.cc_l3cache.demandMissRate::processor.cores6.core.inst            1                       # miss rate for demand accesses (Ratio)
board.cache_hierarchy.cc_l3cache.demandMissRate::processor.cores6.core.data            1                       # miss rate for demand accesses (Ratio)
board.cache_hierarchy.cc_l3cache.demandMissRate::processor.cores7.core.inst            1                       # miss rate for demand accesses (Ratio)
board.cache_hierarchy.cc_l3cache.demandMissRate::processor.cores7.core.data            1                       # miss rate for demand accesses (Ratio)
board.cache_hierarchy.cc_l3cache.demandMissRate::processor.cores0.core.cc_buffer     0.048908                       # miss rate for demand accesses (Ratio)
board.cache_hierarchy.cc_l3cache.demandMissRate::processor.cores1.core.cc_buffer     0.001443                       # miss rate for demand accesses (Ratio)
board.cache_hierarchy.cc_l3cache.demandMissRate::processor.cores2.core.cc_buffer     0.002530                       # miss rate for demand accesses (Ratio)
board.cache_hierarchy.cc_l3cache.demandMissRate::processor.cores3.core.cc_buffer     0.002750                       # miss rate for demand accesses (Ratio)
board.cache_hierarchy.cc_l3cache.demandMissRate::processor.cores4.core.cc_buffer     0.002985                       # miss rate for demand accesses (Ratio)
board.cache_hierarchy.cc_l3cache.demandMissRate::processor.cores5.core.cc_buffer     0.003104                       # miss rate for demand accesses (Ratio)
board.cache_hierarchy.cc_l3cache.demandMissRate::processor.cores6.core.cc_buffer     0.003645                       # miss rate for demand accesses (Ratio)
board.cache_hierarchy.cc_l3cache.demandMissRate::processor.cores7.core.cc_buffer     0.004078                       # miss rate for demand accesses (Ratio)
board.cache_hierarchy.cc_l3cache.demandMissRate::total     0.043668                       # miss rate for demand accesses (Ratio)
board.cache_hierarchy.cc_l3cache.overallMissRate::cache_hierarchy.l1dcaches0.prefetcher     0.858974                       # miss rate for overall accesses (Ratio)
board.cache_hierarchy.cc_l3cache.overallMissRate::cache_hierarchy.l1dcaches7.prefetcher            1                       # miss rate for overall accesses (Ratio)
board.cache_hierarchy.cc_l3cache.overallMissRate::cache_hierarchy.l2cache.prefetcher     0.925620                       # miss rate for overall accesses (Ratio)
board.cache_hierarchy.cc_l3cache.overallMissRate::processor.cores0.core.inst            1                       # miss rate for overall accesses (Ratio)
board.cache_hierarchy.cc_l3cache.overallMissRate::processor.cores0.core.data     0.974737                       # miss rate for overall accesses (Ratio)
board.cache_hierarchy.cc_l3cache.overallMissRate::processor.cores1.core.inst            1                       # miss rate for overall accesses (Ratio)
board.cache_hierarchy.cc_l3cache.overallMissRate::processor.cores1.core.data            1                       # miss rate for overall accesses (Ratio)
board.cache_hierarchy.cc_l3cache.overallMissRate::processor.cores2.core.inst            1                       # miss rate for overall accesses (Ratio)
board.cache_hierarchy.cc_l3cache.overallMissRate::processor.cores2.core.data            1                       # miss rate for overall accesses (Ratio)
board.cache_hierarchy.cc_l3cache.overallMissRate::processor.cores3.core.inst            1                       # miss rate for overall accesses (Ratio)
board.cache_hierarchy.cc_l3cache.overallMissRate::processor.cores3.core.data            1                       # miss rate for overall accesses (Ratio)
board.cache_hierarchy.cc_l3cache.overallMissRate::processor.cores4.core.inst            1                       # miss rate for overall accesses (Ratio)
board.cache_hierarchy.cc_l3cache.overallMissRate::processor.cores4.core.data            1                       # miss rate for overall accesses (Ratio)
board.cache_hierarchy.cc_l3cache.overallMissRate::processor.cores5.core.data            1                       # miss rate for overall accesses (Ratio)
board.cache_hierarchy.cc_l3cache.overallMissRate::processor.cores6.core.inst            1                       # miss rate for overall accesses (Ratio)
board.cache_hierarchy.cc_l3cache.overallMissRate::processor.cores6.core.data            1                       # miss rate for overall accesses (Ratio)
board.cache_hierarchy.cc_l3cache.overallMissRate::processor.cores7.core.inst            1                       # miss rate for overall accesses (Ratio)
board.cache_hierarchy.cc_l3cache.overallMissRate::processor.cores7.core.data            1                       # miss rate for overall accesses (Ratio)
board.cache_hierarchy.cc_l3cache.overallMissRate::processor.cores0.core.cc_buffer     0.048908                       # miss rate for overall accesses (Ratio)
board.cache_hierarchy.cc_l3cache.overallMissRate::processor.cores1.core.cc_buffer     0.001443                       # miss rate for overall accesses (Ratio)
board.cache_hierarchy.cc_l3cache.overallMissRate::processor.cores2.core.cc_buffer     0.002530                       # miss rate for overall accesses (Ratio)
board.cache_hierarchy.cc_l3cache.overallMissRate::processor.cores3.core.cc_buffer     0.002750                       # miss rate for overall accesses (Ratio)
board.cache_hierarchy.cc_l3cache.overallMissRate::processor.cores4.core.cc_buffer     0.002985                       # miss rate for overall accesses (Ratio)
board.cache_hierarchy.cc_l3cache.overallMissRate::processor.cores5.core.cc_buffer     0.003104                       # miss rate for overall accesses (Ratio)
board.cache_hierarchy.cc_l3cache.overallMissRate::processor.cores6.core.cc_buffer     0.003645                       # miss rate for overall accesses (Ratio)
board.cache_hierarchy.cc_l3cache.overallMissRate::processor.cores7.core.cc_buffer     0.004078                       # miss rate for overall accesses (Ratio)
board.cache_hierarchy.cc_l3cache.overallMissRate::total     0.043668                       # miss rate for overall accesses (Ratio)
board.cache_hierarchy.cc_l3cache.demandAvgMissLatency::cache_hierarchy.l1dcaches0.prefetcher 95029.358209                       # average overall miss latency in ticks ((Tick/Count))
board.cache_hierarchy.cc_l3cache.demandAvgMissLatency::cache_hierarchy.l1dcaches7.prefetcher        73593                       # average overall miss latency in ticks ((Tick/Count))
board.cache_hierarchy.cc_l3cache.demandAvgMissLatency::cache_hierarchy.l2cache.prefetcher 86228.857143                       # average overall miss latency in ticks ((Tick/Count))
board.cache_hierarchy.cc_l3cache.demandAvgMissLatency::processor.cores0.core.inst 56546.338235                       # average overall miss latency in ticks ((Tick/Count))
board.cache_hierarchy.cc_l3cache.demandAvgMissLatency::processor.cores0.core.data 63264.965443                       # average overall miss latency in ticks ((Tick/Count))
board.cache_hierarchy.cc_l3cache.demandAvgMissLatency::processor.cores1.core.inst 58012.105263                       # average overall miss latency in ticks ((Tick/Count))
board.cache_hierarchy.cc_l3cache.demandAvgMissLatency::processor.cores1.core.data        64824                       # average overall miss latency in ticks ((Tick/Count))
board.cache_hierarchy.cc_l3cache.demandAvgMissLatency::processor.cores2.core.inst 66766.500000                       # average overall miss latency in ticks ((Tick/Count))
board.cache_hierarchy.cc_l3cache.demandAvgMissLatency::processor.cores2.core.data 56229.428571                       # average overall miss latency in ticks ((Tick/Count))
board.cache_hierarchy.cc_l3cache.demandAvgMissLatency::processor.cores3.core.inst        59940                       # average overall miss latency in ticks ((Tick/Count))
board.cache_hierarchy.cc_l3cache.demandAvgMissLatency::processor.cores3.core.data 53224.500000                       # average overall miss latency in ticks ((Tick/Count))
board.cache_hierarchy.cc_l3cache.demandAvgMissLatency::processor.cores4.core.inst        46287                       # average overall miss latency in ticks ((Tick/Count))
board.cache_hierarchy.cc_l3cache.demandAvgMissLatency::processor.cores4.core.data        48840                       # average overall miss latency in ticks ((Tick/Count))
board.cache_hierarchy.cc_l3cache.demandAvgMissLatency::processor.cores5.core.data        51282                       # average overall miss latency in ticks ((Tick/Count))
board.cache_hierarchy.cc_l3cache.demandAvgMissLatency::processor.cores6.core.inst        46287                       # average overall miss latency in ticks ((Tick/Count))
board.cache_hierarchy.cc_l3cache.demandAvgMissLatency::processor.cores6.core.data        53946                       # average overall miss latency in ticks ((Tick/Count))
board.cache_hierarchy.cc_l3cache.demandAvgMissLatency::processor.cores7.core.inst 66766.500000                       # average overall miss latency in ticks ((Tick/Count))
board.cache_hierarchy.cc_l3cache.demandAvgMissLatency::processor.cores7.core.data        46287                       # average overall miss latency in ticks ((Tick/Count))
board.cache_hierarchy.cc_l3cache.demandAvgMissLatency::total 33549.741245                       # average overall miss latency in ticks ((Tick/Count))
board.cache_hierarchy.cc_l3cache.overallAvgMissLatency::cache_hierarchy.l1dcaches0.prefetcher 95029.358209                       # average overall miss latency ((Tick/Count))
board.cache_hierarchy.cc_l3cache.overallAvgMissLatency::cache_hierarchy.l1dcaches7.prefetcher        73593                       # average overall miss latency ((Tick/Count))
board.cache_hierarchy.cc_l3cache.overallAvgMissLatency::cache_hierarchy.l2cache.prefetcher 86228.857143                       # average overall miss latency ((Tick/Count))
board.cache_hierarchy.cc_l3cache.overallAvgMissLatency::processor.cores0.core.inst 56546.338235                       # average overall miss latency ((Tick/Count))
board.cache_hierarchy.cc_l3cache.overallAvgMissLatency::processor.cores0.core.data 63264.965443                       # average overall miss latency ((Tick/Count))
board.cache_hierarchy.cc_l3cache.overallAvgMissLatency::processor.cores1.core.inst 58012.105263                       # average overall miss latency ((Tick/Count))
board.cache_hierarchy.cc_l3cache.overallAvgMissLatency::processor.cores1.core.data        64824                       # average overall miss latency ((Tick/Count))
board.cache_hierarchy.cc_l3cache.overallAvgMissLatency::processor.cores2.core.inst 66766.500000                       # average overall miss latency ((Tick/Count))
board.cache_hierarchy.cc_l3cache.overallAvgMissLatency::processor.cores2.core.data 56229.428571                       # average overall miss latency ((Tick/Count))
board.cache_hierarchy.cc_l3cache.overallAvgMissLatency::processor.cores3.core.inst        59940                       # average overall miss latency ((Tick/Count))
board.cache_hierarchy.cc_l3cache.overallAvgMissLatency::processor.cores3.core.data 53224.500000                       # average overall miss latency ((Tick/Count))
board.cache_hierarchy.cc_l3cache.overallAvgMissLatency::processor.cores4.core.inst        46287                       # average overall miss latency ((Tick/Count))
board.cache_hierarchy.cc_l3cache.overallAvgMissLatency::processor.cores4.core.data        48840                       # average overall miss latency ((Tick/Count))
board.cache_hierarchy.cc_l3cache.overallAvgMissLatency::processor.cores5.core.data        51282                       # average overall miss latency ((Tick/Count))
board.cache_hierarchy.cc_l3cache.overallAvgMissLatency::processor.cores6.core.inst        46287                       # average overall miss latency ((Tick/Count))
board.cache_hierarchy.cc_l3cache.overallAvgMissLatency::processor.cores6.core.data        53946                       # average overall miss latency ((Tick/Count))
board.cache_hierarchy.cc_l3cache.overallAvgMissLatency::processor.cores7.core.inst 66766.500000                       # average overall miss latency ((Tick/Count))
board.cache_hierarchy.cc_l3cache.overallAvgMissLatency::processor.cores7.core.data        46287                       # average overall miss latency ((Tick/Count))
board.cache_hierarchy.cc_l3cache.overallAvgMissLatency::total 33549.741245                       # average overall miss latency ((Tick/Count))
board.cache_hierarchy.cc_l3cache.blockedCycles::no_mshrs            0                       # number of cycles access was blocked (Cycle)
board.cache_hierarchy.cc_l3cache.blockedCycles::no_targets            0                       # number of cycles access was blocked (Cycle)
board.cache_hierarchy.cc_l3cache.blockedCauses::no_mshrs            0                       # number of times access was blocked (Count)
board.cache_hierarchy.cc_l3cache.blockedCauses::no_targets            0                       # number of times access was blocked (Count)
board.cache_hierarchy.cc_l3cache.avgBlocked::no_mshrs          nan                       # average number of cycles each access was blocked ((Cycle/Count))
board.cache_hierarchy.cc_l3cache.avgBlocked::no_targets          nan                       # average number of cycles each access was blocked ((Cycle/Count))
board.cache_hierarchy.cc_l3cache.demandMshrHits::cache_hierarchy.l1dcaches0.prefetcher            2                       # number of demand (read+write) MSHR hits (Count)
board.cache_hierarchy.cc_l3cache.demandMshrHits::cache_hierarchy.l2cache.prefetcher           12                       # number of demand (read+write) MSHR hits (Count)
board.cache_hierarchy.cc_l3cache.demandMshrHits::total           14                       # number of demand (read+write) MSHR hits (Count)
board.cache_hierarchy.cc_l3cache.overallMshrHits::cache_hierarchy.l1dcaches0.prefetcher            2                       # number of overall MSHR hits (Count)
board.cache_hierarchy.cc_l3cache.overallMshrHits::cache_hierarchy.l2cache.prefetcher           12                       # number of overall MSHR hits (Count)
board.cache_hierarchy.cc_l3cache.overallMshrHits::total           14                       # number of overall MSHR hits (Count)
board.cache_hierarchy.cc_l3cache.demandMshrMisses::cache_hierarchy.l1dcaches0.prefetcher           65                       # number of demand (read+write) MSHR misses (Count)
board.cache_hierarchy.cc_l3cache.demandMshrMisses::cache_hierarchy.l1dcaches7.prefetcher            1                       # number of demand (read+write) MSHR misses (Count)
board.cache_hierarchy.cc_l3cache.demandMshrMisses::cache_hierarchy.l2cache.prefetcher          100                       # number of demand (read+write) MSHR misses (Count)
board.cache_hierarchy.cc_l3cache.demandMshrMisses::processor.cores0.core.inst          952                       # number of demand (read+write) MSHR misses (Count)
board.cache_hierarchy.cc_l3cache.demandMshrMisses::processor.cores0.core.data          463                       # number of demand (read+write) MSHR misses (Count)
board.cache_hierarchy.cc_l3cache.demandMshrMisses::processor.cores1.core.inst           19                       # number of demand (read+write) MSHR misses (Count)
board.cache_hierarchy.cc_l3cache.demandMshrMisses::processor.cores1.core.data            6                       # number of demand (read+write) MSHR misses (Count)
board.cache_hierarchy.cc_l3cache.demandMshrMisses::processor.cores2.core.inst            6                       # number of demand (read+write) MSHR misses (Count)
board.cache_hierarchy.cc_l3cache.demandMshrMisses::processor.cores2.core.data            7                       # number of demand (read+write) MSHR misses (Count)
board.cache_hierarchy.cc_l3cache.demandMshrMisses::processor.cores3.core.inst            2                       # number of demand (read+write) MSHR misses (Count)
board.cache_hierarchy.cc_l3cache.demandMshrMisses::processor.cores3.core.data            6                       # number of demand (read+write) MSHR misses (Count)
board.cache_hierarchy.cc_l3cache.demandMshrMisses::processor.cores4.core.inst            1                       # number of demand (read+write) MSHR misses (Count)
board.cache_hierarchy.cc_l3cache.demandMshrMisses::processor.cores4.core.data            6                       # number of demand (read+write) MSHR misses (Count)
board.cache_hierarchy.cc_l3cache.demandMshrMisses::processor.cores5.core.data            6                       # number of demand (read+write) MSHR misses (Count)
board.cache_hierarchy.cc_l3cache.demandMshrMisses::processor.cores6.core.inst            3                       # number of demand (read+write) MSHR misses (Count)
board.cache_hierarchy.cc_l3cache.demandMshrMisses::processor.cores6.core.data            6                       # number of demand (read+write) MSHR misses (Count)
board.cache_hierarchy.cc_l3cache.demandMshrMisses::processor.cores7.core.inst            2                       # number of demand (read+write) MSHR misses (Count)
board.cache_hierarchy.cc_l3cache.demandMshrMisses::processor.cores7.core.data            6                       # number of demand (read+write) MSHR misses (Count)
board.cache_hierarchy.cc_l3cache.demandMshrMisses::total         1657                       # number of demand (read+write) MSHR misses (Count)
board.cache_hierarchy.cc_l3cache.overallMshrMisses::cache_hierarchy.cc_l3cache.prefetcher           66                       # number of overall MSHR misses (Count)
board.cache_hierarchy.cc_l3cache.overallMshrMisses::cache_hierarchy.l1dcaches0.prefetcher           65                       # number of overall MSHR misses (Count)
board.cache_hierarchy.cc_l3cache.overallMshrMisses::cache_hierarchy.l1dcaches7.prefetcher            1                       # number of overall MSHR misses (Count)
board.cache_hierarchy.cc_l3cache.overallMshrMisses::cache_hierarchy.l2cache.prefetcher          100                       # number of overall MSHR misses (Count)
board.cache_hierarchy.cc_l3cache.overallMshrMisses::processor.cores0.core.inst          952                       # number of overall MSHR misses (Count)
board.cache_hierarchy.cc_l3cache.overallMshrMisses::processor.cores0.core.data          463                       # number of overall MSHR misses (Count)
board.cache_hierarchy.cc_l3cache.overallMshrMisses::processor.cores1.core.inst           19                       # number of overall MSHR misses (Count)
board.cache_hierarchy.cc_l3cache.overallMshrMisses::processor.cores1.core.data            6                       # number of overall MSHR misses (Count)
board.cache_hierarchy.cc_l3cache.overallMshrMisses::processor.cores2.core.inst            6                       # number of overall MSHR misses (Count)
board.cache_hierarchy.cc_l3cache.overallMshrMisses::processor.cores2.core.data            7                       # number of overall MSHR misses (Count)
board.cache_hierarchy.cc_l3cache.overallMshrMisses::processor.cores3.core.inst            2                       # number of overall MSHR misses (Count)
board.cache_hierarchy.cc_l3cache.overallMshrMisses::processor.cores3.core.data            6                       # number of overall MSHR misses (Count)
board.cache_hierarchy.cc_l3cache.overallMshrMisses::processor.cores4.core.inst            1                       # number of overall MSHR misses (Count)
board.cache_hierarchy.cc_l3cache.overallMshrMisses::processor.cores4.core.data            6                       # number of overall MSHR misses (Count)
board.cache_hierarchy.cc_l3cache.overallMshrMisses::processor.cores5.core.data            6                       # number of overall MSHR misses (Count)
board.cache_hierarchy.cc_l3cache.overallMshrMisses::processor.cores6.core.inst            3                       # number of overall MSHR misses (Count)
board.cache_hierarchy.cc_l3cache.overallMshrMisses::processor.cores6.core.data            6                       # number of overall MSHR misses (Count)
board.cache_hierarchy.cc_l3cache.overallMshrMisses::processor.cores7.core.inst            2                       # number of overall MSHR misses (Count)
board.cache_hierarchy.cc_l3cache.overallMshrMisses::processor.cores7.core.data            6                       # number of overall MSHR misses (Count)
board.cache_hierarchy.cc_l3cache.overallMshrMisses::total         1723                       # number of overall MSHR misses (Count)
board.cache_hierarchy.cc_l3cache.demandMshrMissLatency::cache_hierarchy.l1dcaches0.prefetcher      6228103                       # number of demand (read+write) MSHR miss ticks (Tick)
board.cache_hierarchy.cc_l3cache.demandMshrMissLatency::cache_hierarchy.l1dcaches7.prefetcher        73260                       # number of demand (read+write) MSHR miss ticks (Tick)
board.cache_hierarchy.cc_l3cache.demandMshrMissLatency::cache_hierarchy.l2cache.prefetcher      8847470                       # number of demand (read+write) MSHR miss ticks (Tick)
board.cache_hierarchy.cc_l3cache.demandMshrMissLatency::processor.cores0.core.inst     53515431                       # number of demand (read+write) MSHR miss ticks (Tick)
board.cache_hierarchy.cc_l3cache.demandMshrMissLatency::processor.cores0.core.data     29137500                       # number of demand (read+write) MSHR miss ticks (Tick)
board.cache_hierarchy.cc_l3cache.demandMshrMissLatency::processor.cores1.core.inst      1095903                       # number of demand (read+write) MSHR miss ticks (Tick)
board.cache_hierarchy.cc_l3cache.demandMshrMissLatency::processor.cores1.core.data       386946                       # number of demand (read+write) MSHR miss ticks (Tick)
board.cache_hierarchy.cc_l3cache.demandMshrMissLatency::processor.cores2.core.inst       398601                       # number of demand (read+write) MSHR miss ticks (Tick)
board.cache_hierarchy.cc_l3cache.demandMshrMissLatency::processor.cores2.core.data       391275                       # number of demand (read+write) MSHR miss ticks (Tick)
board.cache_hierarchy.cc_l3cache.demandMshrMissLatency::processor.cores3.core.inst       119214                       # number of demand (read+write) MSHR miss ticks (Tick)
board.cache_hierarchy.cc_l3cache.demandMshrMissLatency::processor.cores3.core.data       317349                       # number of demand (read+write) MSHR miss ticks (Tick)
board.cache_hierarchy.cc_l3cache.demandMshrMissLatency::processor.cores4.core.inst        45954                       # number of demand (read+write) MSHR miss ticks (Tick)
board.cache_hierarchy.cc_l3cache.demandMshrMissLatency::processor.cores4.core.data       291042                       # number of demand (read+write) MSHR miss ticks (Tick)
board.cache_hierarchy.cc_l3cache.demandMshrMissLatency::processor.cores5.core.data       305694                       # number of demand (read+write) MSHR miss ticks (Tick)
board.cache_hierarchy.cc_l3cache.demandMshrMissLatency::processor.cores6.core.inst       137862                       # number of demand (read+write) MSHR miss ticks (Tick)
board.cache_hierarchy.cc_l3cache.demandMshrMissLatency::processor.cores6.core.data       321678                       # number of demand (read+write) MSHR miss ticks (Tick)
board.cache_hierarchy.cc_l3cache.demandMshrMissLatency::processor.cores7.core.inst       132867                       # number of demand (read+write) MSHR miss ticks (Tick)
board.cache_hierarchy.cc_l3cache.demandMshrMissLatency::processor.cores7.core.data       275724                       # number of demand (read+write) MSHR miss ticks (Tick)
board.cache_hierarchy.cc_l3cache.demandMshrMissLatency::total    102021873                       # number of demand (read+write) MSHR miss ticks (Tick)
board.cache_hierarchy.cc_l3cache.overallMshrMissLatency::cache_hierarchy.cc_l3cache.prefetcher      6310287                       # number of overall MSHR miss ticks (Tick)
board.cache_hierarchy.cc_l3cache.overallMshrMissLatency::cache_hierarchy.l1dcaches0.prefetcher      6228103                       # number of overall MSHR miss ticks (Tick)
board.cache_hierarchy.cc_l3cache.overallMshrMissLatency::cache_hierarchy.l1dcaches7.prefetcher        73260                       # number of overall MSHR miss ticks (Tick)
board.cache_hierarchy.cc_l3cache.overallMshrMissLatency::cache_hierarchy.l2cache.prefetcher      8847470                       # number of overall MSHR miss ticks (Tick)
board.cache_hierarchy.cc_l3cache.overallMshrMissLatency::processor.cores0.core.inst     53515431                       # number of overall MSHR miss ticks (Tick)
board.cache_hierarchy.cc_l3cache.overallMshrMissLatency::processor.cores0.core.data     29137500                       # number of overall MSHR miss ticks (Tick)
board.cache_hierarchy.cc_l3cache.overallMshrMissLatency::processor.cores1.core.inst      1095903                       # number of overall MSHR miss ticks (Tick)
board.cache_hierarchy.cc_l3cache.overallMshrMissLatency::processor.cores1.core.data       386946                       # number of overall MSHR miss ticks (Tick)
board.cache_hierarchy.cc_l3cache.overallMshrMissLatency::processor.cores2.core.inst       398601                       # number of overall MSHR miss ticks (Tick)
board.cache_hierarchy.cc_l3cache.overallMshrMissLatency::processor.cores2.core.data       391275                       # number of overall MSHR miss ticks (Tick)
board.cache_hierarchy.cc_l3cache.overallMshrMissLatency::processor.cores3.core.inst       119214                       # number of overall MSHR miss ticks (Tick)
board.cache_hierarchy.cc_l3cache.overallMshrMissLatency::processor.cores3.core.data       317349                       # number of overall MSHR miss ticks (Tick)
board.cache_hierarchy.cc_l3cache.overallMshrMissLatency::processor.cores4.core.inst        45954                       # number of overall MSHR miss ticks (Tick)
board.cache_hierarchy.cc_l3cache.overallMshrMissLatency::processor.cores4.core.data       291042                       # number of overall MSHR miss ticks (Tick)
board.cache_hierarchy.cc_l3cache.overallMshrMissLatency::processor.cores5.core.data       305694                       # number of overall MSHR miss ticks (Tick)
board.cache_hierarchy.cc_l3cache.overallMshrMissLatency::processor.cores6.core.inst       137862                       # number of overall MSHR miss ticks (Tick)
board.cache_hierarchy.cc_l3cache.overallMshrMissLatency::processor.cores6.core.data       321678                       # number of overall MSHR miss ticks (Tick)
board.cache_hierarchy.cc_l3cache.overallMshrMissLatency::processor.cores7.core.inst       132867                       # number of overall MSHR miss ticks (Tick)
board.cache_hierarchy.cc_l3cache.overallMshrMissLatency::processor.cores7.core.data       275724                       # number of overall MSHR miss ticks (Tick)
board.cache_hierarchy.cc_l3cache.overallMshrMissLatency::total    108332160                       # number of overall MSHR miss ticks (Tick)
board.cache_hierarchy.cc_l3cache.demandMshrMissRate::cache_hierarchy.l1dcaches0.prefetcher     0.833333                       # mshr miss ratio for demand accesses (Ratio)
board.cache_hierarchy.cc_l3cache.demandMshrMissRate::cache_hierarchy.l1dcaches7.prefetcher            1                       # mshr miss ratio for demand accesses (Ratio)
board.cache_hierarchy.cc_l3cache.demandMshrMissRate::cache_hierarchy.l2cache.prefetcher     0.826446                       # mshr miss ratio for demand accesses (Ratio)
board.cache_hierarchy.cc_l3cache.demandMshrMissRate::processor.cores0.core.inst            1                       # mshr miss ratio for demand accesses (Ratio)
board.cache_hierarchy.cc_l3cache.demandMshrMissRate::processor.cores0.core.data     0.974737                       # mshr miss ratio for demand accesses (Ratio)
board.cache_hierarchy.cc_l3cache.demandMshrMissRate::processor.cores1.core.inst            1                       # mshr miss ratio for demand accesses (Ratio)
board.cache_hierarchy.cc_l3cache.demandMshrMissRate::processor.cores1.core.data            1                       # mshr miss ratio for demand accesses (Ratio)
board.cache_hierarchy.cc_l3cache.demandMshrMissRate::processor.cores2.core.inst            1                       # mshr miss ratio for demand accesses (Ratio)
board.cache_hierarchy.cc_l3cache.demandMshrMissRate::processor.cores2.core.data            1                       # mshr miss ratio for demand accesses (Ratio)
board.cache_hierarchy.cc_l3cache.demandMshrMissRate::processor.cores3.core.inst            1                       # mshr miss ratio for demand accesses (Ratio)
board.cache_hierarchy.cc_l3cache.demandMshrMissRate::processor.cores3.core.data            1                       # mshr miss ratio for demand accesses (Ratio)
board.cache_hierarchy.cc_l3cache.demandMshrMissRate::processor.cores4.core.inst            1                       # mshr miss ratio for demand accesses (Ratio)
board.cache_hierarchy.cc_l3cache.demandMshrMissRate::processor.cores4.core.data            1                       # mshr miss ratio for demand accesses (Ratio)
board.cache_hierarchy.cc_l3cache.demandMshrMissRate::processor.cores5.core.data            1                       # mshr miss ratio for demand accesses (Ratio)
board.cache_hierarchy.cc_l3cache.demandMshrMissRate::processor.cores6.core.inst            1                       # mshr miss ratio for demand accesses (Ratio)
board.cache_hierarchy.cc_l3cache.demandMshrMissRate::processor.cores6.core.data            1                       # mshr miss ratio for demand accesses (Ratio)
board.cache_hierarchy.cc_l3cache.demandMshrMissRate::processor.cores7.core.inst            1                       # mshr miss ratio for demand accesses (Ratio)
board.cache_hierarchy.cc_l3cache.demandMshrMissRate::processor.cores7.core.data            1                       # mshr miss ratio for demand accesses (Ratio)
board.cache_hierarchy.cc_l3cache.demandMshrMissRate::total     0.023462                       # mshr miss ratio for demand accesses (Ratio)
board.cache_hierarchy.cc_l3cache.overallMshrMissRate::cache_hierarchy.cc_l3cache.prefetcher          inf                       # mshr miss ratio for overall accesses (Ratio)
board.cache_hierarchy.cc_l3cache.overallMshrMissRate::cache_hierarchy.l1dcaches0.prefetcher     0.833333                       # mshr miss ratio for overall accesses (Ratio)
board.cache_hierarchy.cc_l3cache.overallMshrMissRate::cache_hierarchy.l1dcaches7.prefetcher            1                       # mshr miss ratio for overall accesses (Ratio)
board.cache_hierarchy.cc_l3cache.overallMshrMissRate::cache_hierarchy.l2cache.prefetcher     0.826446                       # mshr miss ratio for overall accesses (Ratio)
board.cache_hierarchy.cc_l3cache.overallMshrMissRate::processor.cores0.core.inst            1                       # mshr miss ratio for overall accesses (Ratio)
board.cache_hierarchy.cc_l3cache.overallMshrMissRate::processor.cores0.core.data     0.974737                       # mshr miss ratio for overall accesses (Ratio)
board.cache_hierarchy.cc_l3cache.overallMshrMissRate::processor.cores1.core.inst            1                       # mshr miss ratio for overall accesses (Ratio)
board.cache_hierarchy.cc_l3cache.overallMshrMissRate::processor.cores1.core.data            1                       # mshr miss ratio for overall accesses (Ratio)
board.cache_hierarchy.cc_l3cache.overallMshrMissRate::processor.cores2.core.inst            1                       # mshr miss ratio for overall accesses (Ratio)
board.cache_hierarchy.cc_l3cache.overallMshrMissRate::processor.cores2.core.data            1                       # mshr miss ratio for overall accesses (Ratio)
board.cache_hierarchy.cc_l3cache.overallMshrMissRate::processor.cores3.core.inst            1                       # mshr miss ratio for overall accesses (Ratio)
board.cache_hierarchy.cc_l3cache.overallMshrMissRate::processor.cores3.core.data            1                       # mshr miss ratio for overall accesses (Ratio)
board.cache_hierarchy.cc_l3cache.overallMshrMissRate::processor.cores4.core.inst            1                       # mshr miss ratio for overall accesses (Ratio)
board.cache_hierarchy.cc_l3cache.overallMshrMissRate::processor.cores4.core.data            1                       # mshr miss ratio for overall accesses (Ratio)
board.cache_hierarchy.cc_l3cache.overallMshrMissRate::processor.cores5.core.data            1                       # mshr miss ratio for overall accesses (Ratio)
board.cache_hierarchy.cc_l3cache.overallMshrMissRate::processor.cores6.core.inst            1                       # mshr miss ratio for overall accesses (Ratio)
board.cache_hierarchy.cc_l3cache.overallMshrMissRate::processor.cores6.core.data            1                       # mshr miss ratio for overall accesses (Ratio)
board.cache_hierarchy.cc_l3cache.overallMshrMissRate::processor.cores7.core.inst            1                       # mshr miss ratio for overall accesses (Ratio)
board.cache_hierarchy.cc_l3cache.overallMshrMissRate::processor.cores7.core.data            1                       # mshr miss ratio for overall accesses (Ratio)
board.cache_hierarchy.cc_l3cache.overallMshrMissRate::total     0.024397                       # mshr miss ratio for overall accesses (Ratio)
board.cache_hierarchy.cc_l3cache.demandAvgMshrMissLatency::cache_hierarchy.l1dcaches0.prefetcher 95816.969231                       # average overall mshr miss latency ((Tick/Count))
board.cache_hierarchy.cc_l3cache.demandAvgMshrMissLatency::cache_hierarchy.l1dcaches7.prefetcher        73260                       # average overall mshr miss latency ((Tick/Count))
board.cache_hierarchy.cc_l3cache.demandAvgMshrMissLatency::cache_hierarchy.l2cache.prefetcher 88474.700000                       # average overall mshr miss latency ((Tick/Count))
board.cache_hierarchy.cc_l3cache.demandAvgMshrMissLatency::processor.cores0.core.inst 56213.688025                       # average overall mshr miss latency ((Tick/Count))
board.cache_hierarchy.cc_l3cache.demandAvgMshrMissLatency::processor.cores0.core.data 62931.965443                       # average overall mshr miss latency ((Tick/Count))
board.cache_hierarchy.cc_l3cache.demandAvgMshrMissLatency::processor.cores1.core.inst 57679.105263                       # average overall mshr miss latency ((Tick/Count))
board.cache_hierarchy.cc_l3cache.demandAvgMshrMissLatency::processor.cores1.core.data        64491                       # average overall mshr miss latency ((Tick/Count))
board.cache_hierarchy.cc_l3cache.demandAvgMshrMissLatency::processor.cores2.core.inst 66433.500000                       # average overall mshr miss latency ((Tick/Count))
board.cache_hierarchy.cc_l3cache.demandAvgMshrMissLatency::processor.cores2.core.data 55896.428571                       # average overall mshr miss latency ((Tick/Count))
board.cache_hierarchy.cc_l3cache.demandAvgMshrMissLatency::processor.cores3.core.inst        59607                       # average overall mshr miss latency ((Tick/Count))
board.cache_hierarchy.cc_l3cache.demandAvgMshrMissLatency::processor.cores3.core.data 52891.500000                       # average overall mshr miss latency ((Tick/Count))
board.cache_hierarchy.cc_l3cache.demandAvgMshrMissLatency::processor.cores4.core.inst        45954                       # average overall mshr miss latency ((Tick/Count))
board.cache_hierarchy.cc_l3cache.demandAvgMshrMissLatency::processor.cores4.core.data        48507                       # average overall mshr miss latency ((Tick/Count))
board.cache_hierarchy.cc_l3cache.demandAvgMshrMissLatency::processor.cores5.core.data        50949                       # average overall mshr miss latency ((Tick/Count))
board.cache_hierarchy.cc_l3cache.demandAvgMshrMissLatency::processor.cores6.core.inst        45954                       # average overall mshr miss latency ((Tick/Count))
board.cache_hierarchy.cc_l3cache.demandAvgMshrMissLatency::processor.cores6.core.data        53613                       # average overall mshr miss latency ((Tick/Count))
board.cache_hierarchy.cc_l3cache.demandAvgMshrMissLatency::processor.cores7.core.inst 66433.500000                       # average overall mshr miss latency ((Tick/Count))
board.cache_hierarchy.cc_l3cache.demandAvgMshrMissLatency::processor.cores7.core.data        45954                       # average overall mshr miss latency ((Tick/Count))
board.cache_hierarchy.cc_l3cache.demandAvgMshrMissLatency::total 61570.231141                       # average overall mshr miss latency ((Tick/Count))
board.cache_hierarchy.cc_l3cache.overallAvgMshrMissLatency::cache_hierarchy.cc_l3cache.prefetcher 95610.409091                       # average overall mshr miss latency ((Tick/Count))
board.cache_hierarchy.cc_l3cache.overallAvgMshrMissLatency::cache_hierarchy.l1dcaches0.prefetcher 95816.969231                       # average overall mshr miss latency ((Tick/Count))
board.cache_hierarchy.cc_l3cache.overallAvgMshrMissLatency::cache_hierarchy.l1dcaches7.prefetcher        73260                       # average overall mshr miss latency ((Tick/Count))
board.cache_hierarchy.cc_l3cache.overallAvgMshrMissLatency::cache_hierarchy.l2cache.prefetcher 88474.700000                       # average overall mshr miss latency ((Tick/Count))
board.cache_hierarchy.cc_l3cache.overallAvgMshrMissLatency::processor.cores0.core.inst 56213.688025                       # average overall mshr miss latency ((Tick/Count))
board.cache_hierarchy.cc_l3cache.overallAvgMshrMissLatency::processor.cores0.core.data 62931.965443                       # average overall mshr miss latency ((Tick/Count))
board.cache_hierarchy.cc_l3cache.overallAvgMshrMissLatency::processor.cores1.core.inst 57679.105263                       # average overall mshr miss latency ((Tick/Count))
board.cache_hierarchy.cc_l3cache.overallAvgMshrMissLatency::processor.cores1.core.data        64491                       # average overall mshr miss latency ((Tick/Count))
board.cache_hierarchy.cc_l3cache.overallAvgMshrMissLatency::processor.cores2.core.inst 66433.500000                       # average overall mshr miss latency ((Tick/Count))
board.cache_hierarchy.cc_l3cache.overallAvgMshrMissLatency::processor.cores2.core.data 55896.428571                       # average overall mshr miss latency ((Tick/Count))
board.cache_hierarchy.cc_l3cache.overallAvgMshrMissLatency::processor.cores3.core.inst        59607                       # average overall mshr miss latency ((Tick/Count))
board.cache_hierarchy.cc_l3cache.overallAvgMshrMissLatency::processor.cores3.core.data 52891.500000                       # average overall mshr miss latency ((Tick/Count))
board.cache_hierarchy.cc_l3cache.overallAvgMshrMissLatency::processor.cores4.core.inst        45954                       # average overall mshr miss latency ((Tick/Count))
board.cache_hierarchy.cc_l3cache.overallAvgMshrMissLatency::processor.cores4.core.data        48507                       # average overall mshr miss latency ((Tick/Count))
board.cache_hierarchy.cc_l3cache.overallAvgMshrMissLatency::processor.cores5.core.data        50949                       # average overall mshr miss latency ((Tick/Count))
board.cache_hierarchy.cc_l3cache.overallAvgMshrMissLatency::processor.cores6.core.inst        45954                       # average overall mshr miss latency ((Tick/Count))
board.cache_hierarchy.cc_l3cache.overallAvgMshrMissLatency::processor.cores6.core.data        53613                       # average overall mshr miss latency ((Tick/Count))
board.cache_hierarchy.cc_l3cache.overallAvgMshrMissLatency::processor.cores7.core.inst 66433.500000                       # average overall mshr miss latency ((Tick/Count))
board.cache_hierarchy.cc_l3cache.overallAvgMshrMissLatency::processor.cores7.core.data        45954                       # average overall mshr miss latency ((Tick/Count))
board.cache_hierarchy.cc_l3cache.overallAvgMshrMissLatency::total 62874.149739                       # average overall mshr miss latency ((Tick/Count))
board.cache_hierarchy.cc_l3cache.replacements            0                       # number of replacements (Count)
board.cache_hierarchy.cc_l3cache.HardPFReq.mshrMisses::cache_hierarchy.cc_l3cache.prefetcher           66                       # number of HardPFReq MSHR misses (Count)
board.cache_hierarchy.cc_l3cache.HardPFReq.mshrMisses::total           66                       # number of HardPFReq MSHR misses (Count)
board.cache_hierarchy.cc_l3cache.HardPFReq.mshrMissLatency::cache_hierarchy.cc_l3cache.prefetcher      6310287                       # number of HardPFReq MSHR miss ticks (Tick)
board.cache_hierarchy.cc_l3cache.HardPFReq.mshrMissLatency::total      6310287                       # number of HardPFReq MSHR miss ticks (Tick)
board.cache_hierarchy.cc_l3cache.HardPFReq.mshrMissRate::cache_hierarchy.cc_l3cache.prefetcher          inf                       # mshr miss rate for HardPFReq accesses (Ratio)
board.cache_hierarchy.cc_l3cache.HardPFReq.mshrMissRate::total          inf                       # mshr miss rate for HardPFReq accesses (Ratio)
board.cache_hierarchy.cc_l3cache.HardPFReq.avgMshrMissLatency::cache_hierarchy.cc_l3cache.prefetcher 95610.409091                       # average HardPFReq mshr miss latency ((Tick/Count))
board.cache_hierarchy.cc_l3cache.HardPFReq.avgMshrMissLatency::total 95610.409091                       # average HardPFReq mshr miss latency ((Tick/Count))
board.cache_hierarchy.cc_l3cache.ReadExReq.hits::processor.cores0.core.data            7                       # number of ReadExReq hits (Count)
board.cache_hierarchy.cc_l3cache.ReadExReq.hits::total            7                       # number of ReadExReq hits (Count)
board.cache_hierarchy.cc_l3cache.ReadExReq.misses::processor.cores0.core.data          288                       # number of ReadExReq misses (Count)
board.cache_hierarchy.cc_l3cache.ReadExReq.misses::processor.cores1.core.data            5                       # number of ReadExReq misses (Count)
board.cache_hierarchy.cc_l3cache.ReadExReq.misses::processor.cores2.core.data            5                       # number of ReadExReq misses (Count)
board.cache_hierarchy.cc_l3cache.ReadExReq.misses::processor.cores3.core.data            5                       # number of ReadExReq misses (Count)
board.cache_hierarchy.cc_l3cache.ReadExReq.misses::processor.cores4.core.data            5                       # number of ReadExReq misses (Count)
board.cache_hierarchy.cc_l3cache.ReadExReq.misses::processor.cores5.core.data            5                       # number of ReadExReq misses (Count)
board.cache_hierarchy.cc_l3cache.ReadExReq.misses::processor.cores6.core.data            5                       # number of ReadExReq misses (Count)
board.cache_hierarchy.cc_l3cache.ReadExReq.misses::processor.cores7.core.data            5                       # number of ReadExReq misses (Count)
board.cache_hierarchy.cc_l3cache.ReadExReq.misses::total          323                       # number of ReadExReq misses (Count)
board.cache_hierarchy.cc_l3cache.ReadExReq.missLatency::processor.cores0.core.data     17026623                       # number of ReadExReq miss ticks (Tick)
board.cache_hierarchy.cc_l3cache.ReadExReq.missLatency::processor.cores1.core.data       271728                       # number of ReadExReq miss ticks (Tick)
board.cache_hierarchy.cc_l3cache.ReadExReq.missLatency::processor.cores2.core.data       273726                       # number of ReadExReq miss ticks (Tick)
board.cache_hierarchy.cc_l3cache.ReadExReq.missLatency::processor.cores3.core.data       273060                       # number of ReadExReq miss ticks (Tick)
board.cache_hierarchy.cc_l3cache.ReadExReq.missLatency::processor.cores4.core.data       246753                       # number of ReadExReq miss ticks (Tick)
board.cache_hierarchy.cc_l3cache.ReadExReq.missLatency::processor.cores5.core.data       261405                       # number of ReadExReq miss ticks (Tick)
board.cache_hierarchy.cc_l3cache.ReadExReq.missLatency::processor.cores6.core.data       277389                       # number of ReadExReq miss ticks (Tick)
board.cache_hierarchy.cc_l3cache.ReadExReq.missLatency::processor.cores7.core.data       231435                       # number of ReadExReq miss ticks (Tick)
board.cache_hierarchy.cc_l3cache.ReadExReq.missLatency::total     18862119                       # number of ReadExReq miss ticks (Tick)
board.cache_hierarchy.cc_l3cache.ReadExReq.accesses::processor.cores0.core.data          295                       # number of ReadExReq accesses(hits+misses) (Count)
board.cache_hierarchy.cc_l3cache.ReadExReq.accesses::processor.cores1.core.data            5                       # number of ReadExReq accesses(hits+misses) (Count)
board.cache_hierarchy.cc_l3cache.ReadExReq.accesses::processor.cores2.core.data            5                       # number of ReadExReq accesses(hits+misses) (Count)
board.cache_hierarchy.cc_l3cache.ReadExReq.accesses::processor.cores3.core.data            5                       # number of ReadExReq accesses(hits+misses) (Count)
board.cache_hierarchy.cc_l3cache.ReadExReq.accesses::processor.cores4.core.data            5                       # number of ReadExReq accesses(hits+misses) (Count)
board.cache_hierarchy.cc_l3cache.ReadExReq.accesses::processor.cores5.core.data            5                       # number of ReadExReq accesses(hits+misses) (Count)
board.cache_hierarchy.cc_l3cache.ReadExReq.accesses::processor.cores6.core.data            5                       # number of ReadExReq accesses(hits+misses) (Count)
board.cache_hierarchy.cc_l3cache.ReadExReq.accesses::processor.cores7.core.data            5                       # number of ReadExReq accesses(hits+misses) (Count)
board.cache_hierarchy.cc_l3cache.ReadExReq.accesses::total          330                       # number of ReadExReq accesses(hits+misses) (Count)
board.cache_hierarchy.cc_l3cache.ReadExReq.missRate::processor.cores0.core.data     0.976271                       # miss rate for ReadExReq accesses (Ratio)
board.cache_hierarchy.cc_l3cache.ReadExReq.missRate::processor.cores1.core.data            1                       # miss rate for ReadExReq accesses (Ratio)
board.cache_hierarchy.cc_l3cache.ReadExReq.missRate::processor.cores2.core.data            1                       # miss rate for ReadExReq accesses (Ratio)
board.cache_hierarchy.cc_l3cache.ReadExReq.missRate::processor.cores3.core.data            1                       # miss rate for ReadExReq accesses (Ratio)
board.cache_hierarchy.cc_l3cache.ReadExReq.missRate::processor.cores4.core.data            1                       # miss rate for ReadExReq accesses (Ratio)
board.cache_hierarchy.cc_l3cache.ReadExReq.missRate::processor.cores5.core.data            1                       # miss rate for ReadExReq accesses (Ratio)
board.cache_hierarchy.cc_l3cache.ReadExReq.missRate::processor.cores6.core.data            1                       # miss rate for ReadExReq accesses (Ratio)
board.cache_hierarchy.cc_l3cache.ReadExReq.missRate::processor.cores7.core.data            1                       # miss rate for ReadExReq accesses (Ratio)
board.cache_hierarchy.cc_l3cache.ReadExReq.missRate::total     0.978788                       # miss rate for ReadExReq accesses (Ratio)
board.cache_hierarchy.cc_l3cache.ReadExReq.avgMissLatency::processor.cores0.core.data 59120.218750                       # average ReadExReq miss latency ((Tick/Count))
board.cache_hierarchy.cc_l3cache.ReadExReq.avgMissLatency::processor.cores1.core.data 54345.600000                       # average ReadExReq miss latency ((Tick/Count))
board.cache_hierarchy.cc_l3cache.ReadExReq.avgMissLatency::processor.cores2.core.data 54745.200000                       # average ReadExReq miss latency ((Tick/Count))
board.cache_hierarchy.cc_l3cache.ReadExReq.avgMissLatency::processor.cores3.core.data        54612                       # average ReadExReq miss latency ((Tick/Count))
board.cache_hierarchy.cc_l3cache.ReadExReq.avgMissLatency::processor.cores4.core.data 49350.600000                       # average ReadExReq miss latency ((Tick/Count))
board.cache_hierarchy.cc_l3cache.ReadExReq.avgMissLatency::processor.cores5.core.data        52281                       # average ReadExReq miss latency ((Tick/Count))
board.cache_hierarchy.cc_l3cache.ReadExReq.avgMissLatency::processor.cores6.core.data 55477.800000                       # average ReadExReq miss latency ((Tick/Count))
board.cache_hierarchy.cc_l3cache.ReadExReq.avgMissLatency::processor.cores7.core.data        46287                       # average ReadExReq miss latency ((Tick/Count))
board.cache_hierarchy.cc_l3cache.ReadExReq.avgMissLatency::total 58396.653251                       # average ReadExReq miss latency ((Tick/Count))
board.cache_hierarchy.cc_l3cache.ReadExReq.mshrMisses::processor.cores0.core.data          288                       # number of ReadExReq MSHR misses (Count)
board.cache_hierarchy.cc_l3cache.ReadExReq.mshrMisses::processor.cores1.core.data            5                       # number of ReadExReq MSHR misses (Count)
board.cache_hierarchy.cc_l3cache.ReadExReq.mshrMisses::processor.cores2.core.data            5                       # number of ReadExReq MSHR misses (Count)
board.cache_hierarchy.cc_l3cache.ReadExReq.mshrMisses::processor.cores3.core.data            5                       # number of ReadExReq MSHR misses (Count)
[...]
board.processor.cores7.core.cc_buffer.execute_buffer_occupancy_histogram::149            0      0.00%     87.81% # Distribution of decode buffer occupancy (Unspecified)
board.processor.cores7.core.cc_buffer.execute_buffer_occupancy_histogram::150            0      0.00%     87.81% # Distribution of decode buffer occupancy (Unspecified)
board.processor.cores7.core.cc_buffer.execute_buffer_occupancy_histogram::151            1      0.00%     87.81% # Distribution of decode buffer occupancy (Unspecified)
board.processor.cores7.core.cc_buffer.execute_buffer_occupancy_histogram::152            0      0.00%     87.81% # Distribution of decode buffer occupancy (Unspecified)
board.processor.cores7.core.cc_buffer.execute_buffer_occupancy_histogram::153            0      0.00%     87.81% # Distribution of decode buffer occupancy (Unspecified)
board.processor.cores7.core.cc_buffer.execute_buffer_occupancy_histogram::154            0      0.00%     87.81% # Distribution of decode buffer occupancy (Unspecified)
board.processor.cores7.core.cc_buffer.execute_buffer_occupancy_histogram::155            3      0.00%     87.82% # Distribution of decode buffer occupancy (Unspecified)
board.processor.cores7.core.cc_buffer.execute_buffer_occupancy_histogram::156            0      0.00%     87.82% # Distribution of decode buffer occupancy (Unspecified)
board.processor.cores7.core.cc_buffer.execute_buffer_occupancy_histogram::157            2      0.00%     87.82% # Distribution of decode buffer occupancy (Unspecified)
board.processor.cores7.core.cc_buffer.execute_buffer_occupancy_histogram::158            0      0.00%     87.82% # Distribution of decode buffer occupancy (Unspecified)
board.processor.cores7.core.cc_buffer.execute_buffer_occupancy_histogram::159            4      0.00%     87.82% # Distribution of decode buffer occupancy (Unspecified)
board.processor.cores7.core.cc_buffer.execute_buffer_occupancy_histogram::160            0      0.00%     87.82% # Distribution of decode buffer occupancy (Unspecified)
board.processor.cores7.core.cc_buffer.execute_buffer_occupancy_histogram::161            0      0.00%     87.82% # Distribution of decode buffer occupancy (Unspecified)
board.processor.cores7.core.cc_buffer.execute_buffer_occupancy_histogram::162            0      0.00%     87.82% # Distribution of decode buffer occupancy (Unspecified)
board.processor.cores7.core.cc_buffer.execute_buffer_occupancy_histogram::163            1      0.00%     87.82% # Distribution of decode buffer occupancy (Unspecified)
board.processor.cores7.core.cc_buffer.execute_buffer_occupancy_histogram::164            0      0.00%     87.82% # Distribution of decode buffer occupancy (Unspecified)
board.processor.cores7.core.cc_buffer.execute_buffer_occupancy_histogram::165            0      0.00%     87.82% # Distribution of decode buffer occupancy (Unspecified)
board.processor.cores7.core.cc_buffer.execute_buffer_occupancy_histogram::166            0      0.00%     87.82% # Distribution of decode buffer occupancy (Unspecified)
board.processor.cores7.core.cc_buffer.execute_buffer_occupancy_histogram::167            1      0.00%     87.82% # Distribution of decode buffer occupancy (Unspecified)
board.processor.cores7.core.cc_buffer.execute_buffer_occupancy_histogram::168            0      0.00%     87.82% # Distribution of decode buffer occupancy (Unspecified)
board.processor.cores7.core.cc_buffer.execute_buffer_occupancy_histogram::169            0      0.00%     87.82% # Distribution of decode buffer occupancy (Unspecified)
board.processor.cores7.core.cc_buffer.execute_buffer_occupancy_histogram::170            0      0.00%     87.82% # Distribution of decode buffer occupancy (Unspecified)
board.processor.cores7.core.cc_buffer.execute_buffer_occupancy_histogram::171            1      0.00%     87.82% # Distribution of decode buffer occupancy (Unspecified)
board.processor.cores7.core.cc_buffer.execute_buffer_occupancy_histogram::172            0      0.00%     87.82% # Distribution of decode buffer occupancy (Unspecified)
board.processor.cores7.core.cc_buffer.execute_buffer_occupancy_histogram::173            0      0.00%     87.82% # Distribution of decode buffer occupancy (Unspecified)
board.processor.cores7.core.cc_buffer.execute_buffer_occupancy_histogram::174            0      0.00%     87.82% # Distribution of decode buffer occupancy (Unspecified)
board.processor.cores7.core.cc_buffer.execute_buffer_occupancy_histogram::175            4      0.00%     87.83% # Distribution of decode buffer occupancy (Unspecified)
board.processor.cores7.core.cc_buffer.execute_buffer_occupancy_histogram::176            0      0.00%     87.83% # Distribution of decode buffer occupancy (Unspecified)
board.processor.cores7.core.cc_buffer.execute_buffer_occupancy_histogram::177            5      0.00%     87.83% # Distribution of decode buffer occupancy (Unspecified)
board.processor.cores7.core.cc_buffer.execute_buffer_occupancy_histogram::178            0      0.00%     87.83% # Distribution of decode buffer occupancy (Unspecified)
board.processor.cores7.core.cc_buffer.execute_buffer_occupancy_histogram::179            4      0.00%     87.84% # Distribution of decode buffer occupancy (Unspecified)
board.processor.cores7.core.cc_buffer.execute_buffer_occupancy_histogram::180            2      0.00%     87.84% # Distribution of decode buffer occupancy (Unspecified)
board.processor.cores7.core.cc_buffer.execute_buffer_occupancy_histogram::181            3      0.00%     87.84% # Distribution of decode buffer occupancy (Unspecified)
board.processor.cores7.core.cc_buffer.execute_buffer_occupancy_histogram::182            2      0.00%     87.84% # Distribution of decode buffer occupancy (Unspecified)
board.processor.cores7.core.cc_buffer.execute_buffer_occupancy_histogram::183            2      0.00%     87.84% # Distribution of decode buffer occupancy (Unspecified)
board.processor.cores7.core.cc_buffer.execute_buffer_occupancy_histogram::184            2      0.00%     87.85% # Distribution of decode buffer occupancy (Unspecified)
board.processor.cores7.core.cc_buffer.execute_buffer_occupancy_histogram::185            8      0.01%     87.85% # Distribution of decode buffer occupancy (Unspecified)
board.processor.cores7.core.cc_buffer.execute_buffer_occupancy_histogram::186            4      0.00%     87.86% # Distribution of decode buffer occupancy (Unspecified)
board.processor.cores7.core.cc_buffer.execute_buffer_occupancy_histogram::187            3      0.00%     87.86% # Distribution of decode buffer occupancy (Unspecified)
board.processor.cores7.core.cc_buffer.execute_buffer_occupancy_histogram::188            5      0.00%     87.86% # Distribution of decode buffer occupancy (Unspecified)
board.processor.cores7.core.cc_buffer.execute_buffer_occupancy_histogram::189            1      0.00%     87.86% # Distribution of decode buffer occupancy (Unspecified)
board.processor.cores7.core.cc_buffer.execute_buffer_occupancy_histogram::190            4      0.00%     87.87% # Distribution of decode buffer occupancy (Unspecified)
board.processor.cores7.core.cc_buffer.execute_buffer_occupancy_histogram::191            1      0.00%     87.87% # Distribution of decode buffer occupancy (Unspecified)
board.processor.cores7.core.cc_buffer.execute_buffer_occupancy_histogram::192            1      0.00%     87.87% # Distribution of decode buffer occupancy (Unspecified)
board.processor.cores7.core.cc_buffer.execute_buffer_occupancy_histogram::193            2      0.00%     87.87% # Distribution of decode buffer occupancy (Unspecified)
board.processor.cores7.core.cc_buffer.execute_buffer_occupancy_histogram::194            0      0.00%     87.87% # Distribution of decode buffer occupancy (Unspecified)
board.processor.cores7.core.cc_buffer.execute_buffer_occupancy_histogram::195           12      0.01%     87.88% # Distribution of decode buffer occupancy (Unspecified)
board.processor.cores7.core.cc_buffer.execute_buffer_occupancy_histogram::196            0      0.00%     87.88% # Distribution of decode buffer occupancy (Unspecified)
board.processor.cores7.core.cc_buffer.execute_buffer_occupancy_histogram::197            6      0.01%     87.89% # Distribution of decode buffer occupancy (Unspecified)
board.processor.cores7.core.cc_buffer.execute_buffer_occupancy_histogram::198            0      0.00%     87.89% # Distribution of decode buffer occupancy (Unspecified)
board.processor.cores7.core.cc_buffer.execute_buffer_occupancy_histogram::199            0      0.00%     87.89% # Distribution of decode buffer occupancy (Unspecified)
board.processor.cores7.core.cc_buffer.execute_buffer_occupancy_histogram::200            2      0.00%     87.89% # Distribution of decode buffer occupancy (Unspecified)
board.processor.cores7.core.cc_buffer.execute_buffer_occupancy_histogram::201            2      0.00%     87.89% # Distribution of decode buffer occupancy (Unspecified)
board.processor.cores7.core.cc_buffer.execute_buffer_occupancy_histogram::202            2      0.00%     87.89% # Distribution of decode buffer occupancy (Unspecified)
board.processor.cores7.core.cc_buffer.execute_buffer_occupancy_histogram::203            0      0.00%     87.89% # Distribution of decode buffer occupancy (Unspecified)
board.processor.cores7.core.cc_buffer.execute_buffer_occupancy_histogram::204            0      0.00%     87.89% # Distribution of decode buffer occupancy (Unspecified)
board.processor.cores7.core.cc_buffer.execute_buffer_occupancy_histogram::205            8      0.01%     87.90% # Distribution of decode buffer occupancy (Unspecified)
board.processor.cores7.core.cc_buffer.execute_buffer_occupancy_histogram::206            0      0.00%     87.90% # Distribution of decode buffer occupancy (Unspecified)
board.processor.cores7.core.cc_buffer.execute_buffer_occupancy_histogram::207            3      0.00%     87.90% # Distribution of decode buffer occupancy (Unspecified)
board.processor.cores7.core.cc_buffer.execute_buffer_occupancy_histogram::208            0      0.00%     87.90% # Distribution of decode buffer occupancy (Unspecified)
board.processor.cores7.core.cc_buffer.execute_buffer_occupancy_histogram::209            3      0.00%     87.91% # Distribution of decode buffer occupancy (Unspecified)
board.processor.cores7.core.cc_buffer.execute_buffer_occupancy_histogram::210            0      0.00%     87.91% # Distribution of decode buffer occupancy (Unspecified)
board.processor.cores7.core.cc_buffer.execute_buffer_occupancy_histogram::211            2      0.00%     87.91% # Distribution of decode buffer occupancy (Unspecified)
board.processor.cores7.core.cc_buffer.execute_buffer_occupancy_histogram::212            2      0.00%     87.91% # Distribution of decode buffer occupancy (Unspecified)
board.processor.cores7.core.cc_buffer.execute_buffer_occupancy_histogram::213            5      0.00%     87.91% # Distribution of decode buffer occupancy (Unspecified)
board.processor.cores7.core.cc_buffer.execute_buffer_occupancy_histogram::214            2      0.00%     87.92% # Distribution of decode buffer occupancy (Unspecified)
board.processor.cores7.core.cc_buffer.execute_buffer_occupancy_histogram::215            2      0.00%     87.92% # Distribution of decode buffer occupancy (Unspecified)
board.processor.cores7.core.cc_buffer.execute_buffer_occupancy_histogram::216            1      0.00%     87.92% # Distribution of decode buffer occupancy (Unspecified)
board.processor.cores7.core.cc_buffer.execute_buffer_occupancy_histogram::217            5      0.00%     87.92% # Distribution of decode buffer occupancy (Unspecified)
board.processor.cores7.core.cc_buffer.execute_buffer_occupancy_histogram::218            2      0.00%     87.93% # Distribution of decode buffer occupancy (Unspecified)
board.processor.cores7.core.cc_buffer.execute_buffer_occupancy_histogram::219            3      0.00%     87.93% # Distribution of decode buffer occupancy (Unspecified)
board.processor.cores7.core.cc_buffer.execute_buffer_occupancy_histogram::220            3      0.00%     87.93% # Distribution of decode buffer occupancy (Unspecified)
board.processor.cores7.core.cc_buffer.execute_buffer_occupancy_histogram::221            0      0.00%     87.93% # Distribution of decode buffer occupancy (Unspecified)
board.processor.cores7.core.cc_buffer.execute_buffer_occupancy_histogram::222            0      0.00%     87.93% # Distribution of decode buffer occupancy (Unspecified)
board.processor.cores7.core.cc_buffer.execute_buffer_occupancy_histogram::223           15      0.01%     87.94% # Distribution of decode buffer occupancy (Unspecified)
board.processor.cores7.core.cc_buffer.execute_buffer_occupancy_histogram::224            4      0.00%     87.95% # Distribution of decode buffer occupancy (Unspecified)
board.processor.cores7.core.cc_buffer.execute_buffer_occupancy_histogram::225            2      0.00%     87.95% # Distribution of decode buffer occupancy (Unspecified)
board.processor.cores7.core.cc_buffer.execute_buffer_occupancy_histogram::226            1      0.00%     87.95% # Distribution of decode buffer occupancy (Unspecified)
board.processor.cores7.core.cc_buffer.execute_buffer_occupancy_histogram::227            2      0.00%     87.95% # Distribution of decode buffer occupancy (Unspecified)
board.processor.cores7.core.cc_buffer.execute_buffer_occupancy_histogram::228            5      0.00%     87.96% # Distribution of decode buffer occupancy (Unspecified)
board.processor.cores7.core.cc_buffer.execute_buffer_occupancy_histogram::229            2      0.00%     87.96% # Distribution of decode buffer occupancy (Unspecified)
board.processor.cores7.core.cc_buffer.execute_buffer_occupancy_histogram::230            1      0.00%     87.96% # Distribution of decode buffer occupancy (Unspecified)
board.processor.cores7.core.cc_buffer.execute_buffer_occupancy_histogram::231            4      0.00%     87.96% # Distribution of decode buffer occupancy (Unspecified)
board.processor.cores7.core.cc_buffer.execute_buffer_occupancy_histogram::232            1      0.00%     87.96% # Distribution of decode buffer occupancy (Unspecified)
board.processor.cores7.core.cc_buffer.execute_buffer_occupancy_histogram::233            0      0.00%     87.96% # Distribution of decode buffer occupancy (Unspecified)
board.processor.cores7.core.cc_buffer.execute_buffer_occupancy_histogram::234            2      0.00%     87.97% # Distribution of decode buffer occupancy (Unspecified)
board.processor.cores7.core.cc_buffer.execute_buffer_occupancy_histogram::235            1      0.00%     87.97% # Distribution of decode buffer occupancy (Unspecified)
board.processor.cores7.core.cc_buffer.execute_buffer_occupancy_histogram::236            3      0.00%     87.97% # Distribution of decode buffer occupancy (Unspecified)
board.processor.cores7.core.cc_buffer.execute_buffer_occupancy_histogram::237            1      0.00%     87.97% # Distribution of decode buffer occupancy (Unspecified)
board.processor.cores7.core.cc_buffer.execute_buffer_occupancy_histogram::238            0      0.00%     87.97% # Distribution of decode buffer occupancy (Unspecified)
board.processor.cores7.core.cc_buffer.execute_buffer_occupancy_histogram::239            5      0.00%     87.97% # Distribution of decode buffer occupancy (Unspecified)
board.processor.cores7.core.cc_buffer.execute_buffer_occupancy_histogram::240            2      0.00%     87.98% # Distribution of decode buffer occupancy (Unspecified)
board.processor.cores7.core.cc_buffer.execute_buffer_occupancy_histogram::241            1      0.00%     87.98% # Distribution of decode buffer occupancy (Unspecified)
board.processor.cores7.core.cc_buffer.execute_buffer_occupancy_histogram::242            2      0.00%     87.98% # Distribution of decode buffer occupancy (Unspecified)
board.processor.cores7.core.cc_buffer.execute_buffer_occupancy_histogram::243            4      0.00%     87.98% # Distribution of decode buffer occupancy (Unspecified)
board.processor.cores7.core.cc_buffer.execute_buffer_occupancy_histogram::244            0      0.00%     87.98% # Distribution of decode buffer occupancy (Unspecified)
board.processor.cores7.core.cc_buffer.execute_buffer_occupancy_histogram::245            2      0.00%     87.98% # Distribution of decode buffer occupancy (Unspecified)
board.processor.cores7.core.cc_buffer.execute_buffer_occupancy_histogram::246            0      0.00%     87.98% # Distribution of decode buffer occupancy (Unspecified)
board.processor.cores7.core.cc_buffer.execute_buffer_occupancy_histogram::247            7      0.01%     87.99% # Distribution of decode buffer occupancy (Unspecified)
board.processor.cores7.core.cc_buffer.execute_buffer_occupancy_histogram::248         2515      2.27%     90.27% # Distribution of decode buffer occupancy (Unspecified)
board.processor.cores7.core.cc_buffer.execute_buffer_occupancy_histogram::249           25      0.02%     90.29% # Distribution of decode buffer occupancy (Unspecified)
board.processor.cores7.core.cc_buffer.execute_buffer_occupancy_histogram::250         5222      4.72%     95.01% # Distribution of decode buffer occupancy (Unspecified)
board.processor.cores7.core.cc_buffer.execute_buffer_occupancy_histogram::251         3494      3.16%     98.17% # Distribution of decode buffer occupancy (Unspecified)
board.processor.cores7.core.cc_buffer.execute_buffer_occupancy_histogram::252          365      0.33%     98.50% # Distribution of decode buffer occupancy (Unspecified)
board.processor.cores7.core.cc_buffer.execute_buffer_occupancy_histogram::253           12      0.01%     98.51% # Distribution of decode buffer occupancy (Unspecified)
board.processor.cores7.core.cc_buffer.execute_buffer_occupancy_histogram::254           55      0.05%     98.56% # Distribution of decode buffer occupancy (Unspecified)
board.processor.cores7.core.cc_buffer.execute_buffer_occupancy_histogram::255           43      0.04%     98.60% # Distribution of decode buffer occupancy (Unspecified)
board.processor.cores7.core.cc_buffer.execute_buffer_occupancy_histogram::256         1545      1.40%    100.00% # Distribution of decode buffer occupancy (Unspecified)
board.processor.cores7.core.cc_buffer.execute_buffer_occupancy_histogram::overflows            0      0.00%    100.00% # Distribution of decode buffer occupancy (Unspecified)
board.processor.cores7.core.cc_buffer.execute_buffer_occupancy_histogram::min_value            0                       # Distribution of decode buffer occupancy (Unspecified)
board.processor.cores7.core.cc_buffer.execute_buffer_occupancy_histogram::max_value          256                       # Distribution of decode buffer occupancy (Unspecified)
board.processor.cores7.core.cc_buffer.execute_buffer_occupancy_histogram::total       110553                       # Distribution of decode buffer occupancy (Unspecified)
board.processor.cores7.core.cc_buffer.execute_old_inst_not_finished         5720                       # Number of times execute buffer paused due to oldest insts not being finished executing (Unspecified)
board.processor.cores7.core.cc_buffer.num_fault_insts           19                       # Number of fault insts executed (Unspecified)
board.processor.cores7.core.cc_buffer.num_unknown_insts            0                       # Number of unknown insts executed (Unspecified)
board.processor.cores7.core.cc_buffer.ooo_stall_signals        26374                       # Number of cycles stalled due to buffer (Unspecified)
board.processor.cores7.core.cc_buffer.regfile_bandwidth_reached         7244                       # Number of times execute buffer paused due to bandwidth reached (Unspecified)
board.processor.cores7.core.cc_buffer.regfile_insts_processed        36422                       # Number of insts regfile has processes (Unspecified)

---------- End Simulation Statistics   ----------
