
---------- Begin Simulation Statistics ----------
simSeconds                                   0.000509                       # Number of seconds simulated (Second)
simTicks                                    508953870                       # Number of ticks simulated (Tick)
finalTick                                   508953870                       # Number of ticks from beginning of simulation (restored from checkpoints and never reset) (Tick)
simFreq                                  1000000000000                       # The number of ticks per simulated second ((Tick/Second))
hostSeconds                                      4.55                       # Real time elapsed on the host (Second)
hostTickRate                                111865099                       # The number of ticks simulated per host second (ticks/s) ((Tick/Second))
hostMemory                                    8594400                       # Number of bytes of host memory used (Byte)
simInsts                                       105190                       # Number of instructions simulated (Count)
simOps                                         179763                       # Number of ops (including micro ops) simulated (Count)
hostInstRate                                    23119                       # Simulator instruction rate (inst/s) ((Count/Second))
hostOpRate                                      39509                       # Simulator op (including micro ops) rate (op/s) ((Count/Second))
board.cache_hierarchy.membus.transDist::ReadReq        44661                       # Transaction distribution (Count)
board.cache_hierarchy.membus.transDist::ReadResp        44651                       # Transaction distribution (Count)
board.cache_hierarchy.membus.transDist::WriteReq        11500                       # Transaction distribution (Count)
board.cache_hierarchy.membus.transDist::WriteResp        11500                       # Transaction distribution (Count)
board.cache_hierarchy.membus.transDist::LockedRMWReadReq          128                       # Transaction distribution (Count)
board.cache_hierarchy.membus.transDist::LockedRMWReadResp          128                       # Transaction distribution (Count)
board.cache_hierarchy.membus.transDist::LockedRMWWriteReq          128                       # Transaction distribution (Count)
board.cache_hierarchy.membus.transDist::LockedRMWWriteResp          128                       # Transaction distribution (Count)
board.cache_hierarchy.membus.pktCount_board.processor.cores0.core.icache_port::board.memory.mem_ctrl.port        18165                       # Packet count per connected requestor and responder (Count)
board.cache_hierarchy.membus.pktCount_board.processor.cores0.core.icache_port::total        18165                       # Packet count per connected requestor and responder (Count)
board.cache_hierarchy.membus.pktCount_board.processor.cores0.core.dcache_port::board.memory.mem_ctrl.port        48100                       # Packet count per connected requestor and responder (Count)
board.cache_hierarchy.membus.pktCount_board.processor.cores0.core.dcache_port::total        48100                       # Packet count per connected requestor and responder (Count)
board.cache_hierarchy.membus.pktCount_board.processor.cores1.core.icache_port::board.memory.mem_ctrl.port         3811                       # Packet count per connected requestor and responder (Count)
board.cache_hierarchy.membus.pktCount_board.processor.cores1.core.icache_port::total         3811                       # Packet count per connected requestor and responder (Count)
board.cache_hierarchy.membus.pktCount_board.processor.cores1.core.dcache_port::board.memory.mem_ctrl.port         4065                       # Packet count per connected requestor and responder (Count)
board.cache_hierarchy.membus.pktCount_board.processor.cores1.core.dcache_port::total         4065                       # Packet count per connected requestor and responder (Count)
board.cache_hierarchy.membus.pktCount_board.processor.cores2.core.icache_port::board.memory.mem_ctrl.port         3533                       # Packet count per connected requestor and responder (Count)
board.cache_hierarchy.membus.pktCount_board.processor.cores2.core.icache_port::total         3533                       # Packet count per connected requestor and responder (Count)
board.cache_hierarchy.membus.pktCount_board.processor.cores2.core.dcache_port::board.memory.mem_ctrl.port         4000                       # Packet count per connected requestor and responder (Count)
board.cache_hierarchy.membus.pktCount_board.processor.cores2.core.dcache_port::total         4000                       # Packet count per connected requestor and responder (Count)
board.cache_hierarchy.membus.pktCount_board.processor.cores3.core.icache_port::board.memory.mem_ctrl.port         3239                       # Packet count per connected requestor and responder (Count)
board.cache_hierarchy.membus.pktCount_board.processor.cores3.core.icache_port::total         3239                       # Packet count per connected requestor and responder (Count)
board.cache_hierarchy.membus.pktCount_board.processor.cores3.core.dcache_port::board.memory.mem_ctrl.port         3859                       # Packet count per connected requestor and responder (Count)
board.cache_hierarchy.membus.pktCount_board.processor.cores3.core.dcache_port::total         3859                       # Packet count per connected requestor and responder (Count)
board.cache_hierarchy.membus.pktCount_board.processor.cores4.core.icache_port::board.memory.mem_ctrl.port         2929                       # Packet count per connected requestor and responder (Count)
board.cache_hierarchy.membus.pktCount_board.processor.cores4.core.icache_port::total         2929                       # Packet count per connected requestor and responder (Count)
board.cache_hierarchy.membus.pktCount_board.processor.cores4.core.dcache_port::board.memory.mem_ctrl.port         3642                       # Packet count per connected requestor and responder (Count)
board.cache_hierarchy.membus.pktCount_board.processor.cores4.core.dcache_port::total         3642                       # Packet count per connected requestor and responder (Count)
board.cache_hierarchy.membus.pktCount_board.processor.cores5.core.icache_port::board.memory.mem_ctrl.port         2643                       # Packet count per connected requestor and responder (Count)
board.cache_hierarchy.membus.pktCount_board.processor.cores5.core.icache_port::total         2643                       # Packet count per connected requestor and responder (Count)
board.cache_hierarchy.membus.pktCount_board.processor.cores5.core.dcache_port::board.memory.mem_ctrl.port         3616                       # Packet count per connected requestor and responder (Count)
board.cache_hierarchy.membus.pktCount_board.processor.cores5.core.dcache_port::total         3616                       # Packet count per connected requestor and responder (Count)
board.cache_hierarchy.membus.pktCount_board.processor.cores6.core.icache_port::board.memory.mem_ctrl.port         2407                       # Packet count per connected requestor and responder (Count)
board.cache_hierarchy.membus.pktCount_board.processor.cores6.core.icache_port::total         2407                       # Packet count per connected requestor and responder (Count)
board.cache_hierarchy.membus.pktCount_board.processor.cores6.core.dcache_port::board.memory.mem_ctrl.port         3478                       # Packet count per connected requestor and responder (Count)
board.cache_hierarchy.membus.pktCount_board.processor.cores6.core.dcache_port::total         3478                       # Packet count per connected requestor and responder (Count)
board.cache_hierarchy.membus.pktCount_board.processor.cores7.core.icache_port::board.memory.mem_ctrl.port         2115                       # Packet count per connected requestor and responder (Count)
board.cache_hierarchy.membus.pktCount_board.processor.cores7.core.icache_port::total         2115                       # Packet count per connected requestor and responder (Count)
board.cache_hierarchy.membus.pktCount_board.processor.cores7.core.dcache_port::board.memory.mem_ctrl.port         3222                       # Packet count per connected requestor and responder (Count)
board.cache_hierarchy.membus.pktCount_board.processor.cores7.core.dcache_port::total         3222                       # Packet count per connected requestor and responder (Count)
board.cache_hierarchy.membus.pktCount::total       112824                       # Packet count per connected requestor and responder (Count)
board.cache_hierarchy.membus.pktSize_board.processor.cores0.core.icache_port::board.memory.mem_ctrl.port       581248                       # Cumulative packet size per connected requestor and responder (Byte)
board.cache_hierarchy.membus.pktSize_board.processor.cores0.core.icache_port::total       581248                       # Cumulative packet size per connected requestor and responder (Byte)
board.cache_hierarchy.membus.pktSize_board.processor.cores0.core.dcache_port::board.memory.mem_ctrl.port       156109                       # Cumulative packet size per connected requestor and responder (Byte)
board.cache_hierarchy.membus.pktSize_board.processor.cores0.core.dcache_port::total       156109                       # Cumulative packet size per connected requestor and responder (Byte)
board.cache_hierarchy.membus.pktSize_board.processor.cores1.core.icache_port::board.memory.mem_ctrl.port       121920                       # Cumulative packet size per connected requestor and responder (Byte)
board.cache_hierarchy.membus.pktSize_board.processor.cores1.core.icache_port::total       121920                       # Cumulative packet size per connected requestor and responder (Byte)
board.cache_hierarchy.membus.pktSize_board.processor.cores1.core.dcache_port::board.memory.mem_ctrl.port        10861                       # Cumulative packet size per connected requestor and responder (Byte)
board.cache_hierarchy.membus.pktSize_board.processor.cores1.core.dcache_port::total        10861                       # Cumulative packet size per connected requestor and responder (Byte)
board.cache_hierarchy.membus.pktSize_board.processor.cores2.core.icache_port::board.memory.mem_ctrl.port       113024                       # Cumulative packet size per connected requestor and responder (Byte)
board.cache_hierarchy.membus.pktSize_board.processor.cores2.core.icache_port::total       113024                       # Cumulative packet size per connected requestor and responder (Byte)
board.cache_hierarchy.membus.pktSize_board.processor.cores2.core.dcache_port::board.memory.mem_ctrl.port        10725                       # Cumulative packet size per connected requestor and responder (Byte)
board.cache_hierarchy.membus.pktSize_board.processor.cores2.core.dcache_port::total        10725                       # Cumulative packet size per connected requestor and responder (Byte)
board.cache_hierarchy.membus.pktSize_board.processor.cores3.core.icache_port::board.memory.mem_ctrl.port       103616                       # Cumulative packet size per connected requestor and responder (Byte)
board.cache_hierarchy.membus.pktSize_board.processor.cores3.core.icache_port::total       103616                       # Cumulative packet size per connected requestor and responder (Byte)
board.cache_hierarchy.membus.pktSize_board.processor.cores3.core.dcache_port::board.memory.mem_ctrl.port        10473                       # Cumulative packet size per connected requestor and responder (Byte)
board.cache_hierarchy.membus.pktSize_board.processor.cores3.core.dcache_port::total        10473                       # Cumulative packet size per connected requestor and responder (Byte)
board.cache_hierarchy.membus.pktSize_board.processor.cores4.core.icache_port::board.memory.mem_ctrl.port        93696                       # Cumulative packet size per connected requestor and responder (Byte)
board.cache_hierarchy.membus.pktSize_board.processor.cores4.core.icache_port::total        93696                       # Cumulative packet size per connected requestor and responder (Byte)
board.cache_hierarchy.membus.pktSize_board.processor.cores4.core.dcache_port::board.memory.mem_ctrl.port        10029                       # Cumulative packet size per connected requestor and responder (Byte)
board.cache_hierarchy.membus.pktSize_board.processor.cores4.core.dcache_port::total        10029                       # Cumulative packet size per connected requestor and responder (Byte)
board.cache_hierarchy.membus.pktSize_board.processor.cores5.core.icache_port::board.memory.mem_ctrl.port        84544                       # Cumulative packet size per connected requestor and responder (Byte)
board.cache_hierarchy.membus.pktSize_board.processor.cores5.core.icache_port::total        84544                       # Cumulative packet size per connected requestor and responder (Byte)
board.cache_hierarchy.membus.pktSize_board.processor.cores5.core.dcache_port::board.memory.mem_ctrl.port        10009                       # Cumulative packet size per connected requestor and responder (Byte)
board.cache_hierarchy.membus.pktSize_board.processor.cores5.core.dcache_port::total        10009                       # Cumulative packet size per connected requestor and responder (Byte)
board.cache_hierarchy.membus.pktSize_board.processor.cores6.core.icache_port::board.memory.mem_ctrl.port        76992                       # Cumulative packet size per connected requestor and responder (Byte)
board.cache_hierarchy.membus.pktSize_board.processor.cores6.core.icache_port::total        76992                       # Cumulative packet size per connected requestor and responder (Byte)
board.cache_hierarchy.membus.pktSize_board.processor.cores6.core.dcache_port::board.memory.mem_ctrl.port         9757                       # Cumulative packet size per connected requestor and responder (Byte)
board.cache_hierarchy.membus.pktSize_board.processor.cores6.core.dcache_port::total         9757                       # Cumulative packet size per connected requestor and responder (Byte)
board.cache_hierarchy.membus.pktSize_board.processor.cores7.core.icache_port::board.memory.mem_ctrl.port        67648                       # Cumulative packet size per connected requestor and responder (Byte)
board.cache_hierarchy.membus.pktSize_board.processor.cores7.core.icache_port::total        67648                       # Cumulative packet size per connected requestor and responder (Byte)
board.cache_hierarchy.membus.pktSize_board.processor.cores7.core.dcache_port::board.memory.mem_ctrl.port         9289                       # Cumulative packet size per connected requestor and responder (Byte)
board.cache_hierarchy.membus.pktSize_board.processor.cores7.core.dcache_port::total         9289                       # Cumulative packet size per connected requestor and responder (Byte)
board.cache_hierarchy.membus.pktSize::total      1469940                       # Cumulative packet size per connected requestor and responder (Byte)
board.cache_hierarchy.membus.snoops                 0                       # Total snoops (Count)
board.cache_hierarchy.membus.snoopTraffic            0                       # Total snoop traffic (Byte)
board.cache_hierarchy.membus.snoopFanout::samples        64778                       # Request fanout histogram (Count)
board.cache_hierarchy.membus.snoopFanout::mean            0                       # Request fanout histogram (Count)
board.cache_hierarchy.membus.snoopFanout::stdev            0                       # Request fanout histogram (Count)
board.cache_hierarchy.membus.snoopFanout::underflows            0      0.00%      0.00% # Request fanout histogram (Count)
board.cache_hierarchy.membus.snoopFanout::0        64778    100.00%    100.00% # Request fanout histogram (Count)
board.cache_hierarchy.membus.snoopFanout::1            0      0.00%    100.00% # Request fanout histogram (Count)
board.cache_hierarchy.membus.snoopFanout::2            0      0.00%    100.00% # Request fanout histogram (Count)
board.cache_hierarchy.membus.snoopFanout::3            0      0.00%    100.00% # Request fanout histogram (Count)
board.cache_hierarchy.membus.snoopFanout::4            0      0.00%    100.00% # Request fanout histogram (Count)
board.cache_hierarchy.membus.snoopFanout::5            0      0.00%    100.00% # Request fanout histogram (Count)
board.cache_hierarchy.membus.snoopFanout::6            0      0.00%    100.00% # Request fanout histogram (Count)
board.cache_hierarchy.membus.snoopFanout::7            0      0.00%    100.00% # Request fanout histogram (Count)
board.cache_hierarchy.membus.snoopFanout::8            0      0.00%    100.00% # Request fanout histogram (Count)
board.cache_hierarchy.membus.snoopFanout::overflows            0      0.00%    100.00% # Request fanout histogram (Count)
board.cache_hierarchy.membus.snoopFanout::min_value            0                       # Request fanout histogram (Count)
board.cache_hierarchy.membus.snoopFanout::max_value            0                       # Request fanout histogram (Count)
board.cache_hierarchy.membus.snoopFanout::total        64778                       # Request fanout histogram (Count)
board.cache_hierarchy.membus.badaddr_responder.power_state.pwrStateResidencyTicks::UNDEFINED    508953870                       # Cumulative time (in ticks) in various power states (Tick)
board.cache_hierarchy.membus.power_state.pwrStateResidencyTicks::UNDEFINED    508953870                       # Cumulative time (in ticks) in various power states (Tick)
board.cache_hierarchy.membus.reqLayer16.occupancy     26849492                       # Layer occupancy (ticks) (Tick)
board.cache_hierarchy.membus.reqLayer16.utilization          0.1                       # Layer utilization (Ratio)
board.cache_hierarchy.membus.respLayer0.occupancy      7679722                       # Layer occupancy (ticks) (Tick)
board.cache_hierarchy.membus.respLayer0.utilization          0.0                       # Layer utilization (Ratio)
board.cache_hierarchy.membus.respLayer1.occupancy     18261151                       # Layer occupancy (ticks) (Tick)
board.cache_hierarchy.membus.respLayer1.utilization          0.0                       # Layer utilization (Ratio)
board.cache_hierarchy.membus.respLayer10.occupancy      1469289                       # Layer occupancy (ticks) (Tick)
board.cache_hierarchy.membus.respLayer10.utilization          0.0                       # Layer utilization (Ratio)
board.cache_hierarchy.membus.respLayer11.occupancy      1617313                       # Layer occupancy (ticks) (Tick)
board.cache_hierarchy.membus.respLayer11.utilization          0.0                       # Layer utilization (Ratio)
board.cache_hierarchy.membus.respLayer15.occupancy      1343803                       # Layer occupancy (ticks) (Tick)
board.cache_hierarchy.membus.respLayer15.utilization          0.0                       # Layer utilization (Ratio)
board.cache_hierarchy.membus.respLayer16.occupancy      1545993                       # Layer occupancy (ticks) (Tick)
board.cache_hierarchy.membus.respLayer16.utilization          0.0                       # Layer utilization (Ratio)
board.cache_hierarchy.membus.respLayer20.occupancy      1217189                       # Layer occupancy (ticks) (Tick)
board.cache_hierarchy.membus.respLayer20.utilization          0.0                       # Layer utilization (Ratio)
board.cache_hierarchy.membus.respLayer21.occupancy      1463502                       # Layer occupancy (ticks) (Tick)
board.cache_hierarchy.membus.respLayer21.utilization          0.0                       # Layer utilization (Ratio)
board.cache_hierarchy.membus.respLayer25.occupancy      1099718                       # Layer occupancy (ticks) (Tick)
board.cache_hierarchy.membus.respLayer25.utilization          0.0                       # Layer utilization (Ratio)
board.cache_hierarchy.membus.respLayer26.occupancy      1463558                       # Layer occupancy (ticks) (Tick)
board.cache_hierarchy.membus.respLayer26.utilization          0.0                       # Layer utilization (Ratio)
board.cache_hierarchy.membus.respLayer30.occupancy      1000603                       # Layer occupancy (ticks) (Tick)
board.cache_hierarchy.membus.respLayer30.utilization          0.0                       # Layer utilization (Ratio)
board.cache_hierarchy.membus.respLayer31.occupancy      1391098                       # Layer occupancy (ticks) (Tick)
board.cache_hierarchy.membus.respLayer31.utilization          0.0                       # Layer utilization (Ratio)
board.cache_hierarchy.membus.respLayer35.occupancy       881493                       # Layer occupancy (ticks) (Tick)
board.cache_hierarchy.membus.respLayer35.utilization          0.0                       # Layer utilization (Ratio)
board.cache_hierarchy.membus.respLayer36.occupancy      1286891                       # Layer occupancy (ticks) (Tick)
board.cache_hierarchy.membus.respLayer36.utilization          0.0                       # Layer utilization (Ratio)
board.cache_hierarchy.membus.respLayer5.occupancy      1583501                       # Layer occupancy (ticks) (Tick)
board.cache_hierarchy.membus.respLayer5.utilization          0.0                       # Layer utilization (Ratio)
board.cache_hierarchy.membus.respLayer6.occupancy      1633552                       # Layer occupancy (ticks) (Tick)
board.cache_hierarchy.membus.respLayer6.utilization          0.0                       # Layer utilization (Ratio)
board.cache_hierarchy.membus.snoop_filter.totRequests            0                       # Total number of requests made to the snoop filter. (Count)
board.cache_hierarchy.membus.snoop_filter.hitSingleRequests            0                       # Number of requests hitting in the snoop filter with a single holder of the requested data. (Count)
board.cache_hierarchy.membus.snoop_filter.hitMultiRequests            0                       # Number of requests hitting in the snoop filter with multiple (>1) holders of the requested data. (Count)
board.cache_hierarchy.membus.snoop_filter.totSnoops            0                       # Total number of snoops made to the snoop filter. (Count)
board.cache_hierarchy.membus.snoop_filter.hitSingleSnoops            0                       # Number of snoops hitting in the snoop filter with a single holder of the requested data. (Count)
board.cache_hierarchy.membus.snoop_filter.hitMultiSnoops            0                       # Number of snoops hitting in the snoop filter with multiple (>1) holders of the requested data. (Count)
board.clk_domain.clock                            333                       # Clock period in ticks (Tick)
board.clk_domain.voltage_domain.voltage             1                       # Voltage in Volts (Volt)
board.memory.mem_ctrl.avgPriority_processor.cores0.core.inst::samples      9083.00                       # Average QoS priority value for accepted requests (Count)
board.memory.mem_ctrl.avgPriority_processor.cores0.core.data::samples     13430.00                       # Average QoS priority value for accepted requests (Count)
board.memory.mem_ctrl.avgPriority_processor.cores1.core.inst::samples      1906.00                       # Average QoS priority value for accepted requests (Count)
board.memory.mem_ctrl.avgPriority_processor.cores1.core.data::samples      1705.00                       # Average QoS priority value for accepted requests (Count)
board.memory.mem_ctrl.avgPriority_processor.cores2.core.inst::samples      1767.00                       # Average QoS priority value for accepted requests (Count)
board.memory.mem_ctrl.avgPriority_processor.cores2.core.data::samples      1601.00                       # Average QoS priority value for accepted requests (Count)
board.memory.mem_ctrl.avgPriority_processor.cores3.core.inst::samples      1620.00                       # Average QoS priority value for accepted requests (Count)
board.memory.mem_ctrl.avgPriority_processor.cores3.core.data::samples      1593.00                       # Average QoS priority value for accepted requests (Count)
board.memory.mem_ctrl.avgPriority_processor.cores4.core.inst::samples      1465.00                       # Average QoS priority value for accepted requests (Count)
board.memory.mem_ctrl.avgPriority_processor.cores4.core.data::samples      1495.00                       # Average QoS priority value for accepted requests (Count)
board.memory.mem_ctrl.avgPriority_processor.cores5.core.inst::samples      1322.00                       # Average QoS priority value for accepted requests (Count)
board.memory.mem_ctrl.avgPriority_processor.cores5.core.data::samples      1451.00                       # Average QoS priority value for accepted requests (Count)
board.memory.mem_ctrl.avgPriority_processor.cores6.core.inst::samples      1204.00                       # Average QoS priority value for accepted requests (Count)
board.memory.mem_ctrl.avgPriority_processor.cores6.core.data::samples      1389.00                       # Average QoS priority value for accepted requests (Count)
board.memory.mem_ctrl.avgPriority_processor.cores7.core.inst::samples      1058.00                       # Average QoS priority value for accepted requests (Count)
board.memory.mem_ctrl.avgPriority_processor.cores7.core.data::samples      1279.00                       # Average QoS priority value for accepted requests (Count)
board.memory.mem_ctrl.priorityMinLatency 0.000000018750                       # per QoS priority minimum request to response latency (Second)
board.memory.mem_ctrl.priorityMaxLatency 0.000276216942                       # per QoS priority maximum request to response latency (Second)
board.memory.mem_ctrl.numReadWriteTurnArounds           65                       # Number of turnarounds from READ to WRITE (Count)
board.memory.mem_ctrl.numWriteReadTurnArounds           65                       # Number of turnarounds from WRITE to READ (Count)
board.memory.mem_ctrl.numStayReadState          68930                       # Number of times bus staying in READ state (Count)
board.memory.mem_ctrl.numStayWriteState           977                       # Number of times bus staying in WRITE state (Count)
board.memory.mem_ctrl.readReqs                  44789                       # Number of read requests accepted (Count)
board.memory.mem_ctrl.writeReqs                 11628                       # Number of write requests accepted (Count)
board.memory.mem_ctrl.readBursts                44789                       # Number of controller read bursts, including those serviced by the write queue (Count)
board.memory.mem_ctrl.writeBursts               11628                       # Number of controller write bursts, including those merged in the write queue (Count)
board.memory.mem_ctrl.servicedByWrQ              2493                       # Number of controller read bursts serviced by the write queue (Count)
board.memory.mem_ctrl.mergedWrBursts            10556                       # Number of controller write bursts merged with an existing one (Count)
board.memory.mem_ctrl.neitherReadNorWriteReqs            0                       # Number of requests that are neither read nor write (Count)
board.memory.mem_ctrl.avgRdQLen                  7.45                       # Average read queue length when enqueuing ((Count/Tick))
board.memory.mem_ctrl.avgWrQLen                 26.23                       # Average write queue length when enqueuing ((Count/Tick))
board.memory.mem_ctrl.numRdRetry                 8361                       # Number of times read queue was full causing retry (Count)
board.memory.mem_ctrl.numWrRetry                    0                       # Number of times write queue was full causing retry (Count)
board.memory.mem_ctrl.readPktSize::0              976                       # Read request sizes (log2) (Count)
board.memory.mem_ctrl.readPktSize::1              197                       # Read request sizes (log2) (Count)
board.memory.mem_ctrl.readPktSize::2             8999                       # Read request sizes (log2) (Count)
board.memory.mem_ctrl.readPktSize::3            15192                       # Read request sizes (log2) (Count)
board.memory.mem_ctrl.readPktSize::4                0                       # Read request sizes (log2) (Count)
board.memory.mem_ctrl.readPktSize::5                0                       # Read request sizes (log2) (Count)
board.memory.mem_ctrl.readPktSize::6            19425                       # Read request sizes (log2) (Count)
board.memory.mem_ctrl.writePktSize::0             187                       # Write request sizes (log2) (Count)
board.memory.mem_ctrl.writePktSize::1               7                       # Write request sizes (log2) (Count)
board.memory.mem_ctrl.writePktSize::2            5825                       # Write request sizes (log2) (Count)
board.memory.mem_ctrl.writePktSize::3            5609                       # Write request sizes (log2) (Count)
board.memory.mem_ctrl.writePktSize::4               0                       # Write request sizes (log2) (Count)
board.memory.mem_ctrl.writePktSize::5               0                       # Write request sizes (log2) (Count)
board.memory.mem_ctrl.writePktSize::6               0                       # Write request sizes (log2) (Count)
board.memory.mem_ctrl.rdQLenPdf::0               4659                       # What read queue length does an incoming req see (Count)
board.memory.mem_ctrl.rdQLenPdf::1               6207                       # What read queue length does an incoming req see (Count)
board.memory.mem_ctrl.rdQLenPdf::2               4226                       # What read queue length does an incoming req see (Count)
board.memory.mem_ctrl.rdQLenPdf::3               2242                       # What read queue length does an incoming req see (Count)
board.memory.mem_ctrl.rdQLenPdf::4               1743                       # What read queue length does an incoming req see (Count)
board.memory.mem_ctrl.rdQLenPdf::5               1664                       # What read queue length does an incoming req see (Count)
board.memory.mem_ctrl.rdQLenPdf::6               1646                       # What read queue length does an incoming req see (Count)
board.memory.mem_ctrl.rdQLenPdf::7               1618                       # What read queue length does an incoming req see (Count)
board.memory.mem_ctrl.rdQLenPdf::8               1500                       # What read queue length does an incoming req see (Count)
board.memory.mem_ctrl.rdQLenPdf::9               1615                       # What read queue length does an incoming req see (Count)
board.memory.mem_ctrl.rdQLenPdf::10              1634                       # What read queue length does an incoming req see (Count)
board.memory.mem_ctrl.rdQLenPdf::11              1362                       # What read queue length does an incoming req see (Count)
board.memory.mem_ctrl.rdQLenPdf::12              1029                       # What read queue length does an incoming req see (Count)
board.memory.mem_ctrl.rdQLenPdf::13               686                       # What read queue length does an incoming req see (Count)
board.memory.mem_ctrl.rdQLenPdf::14               422                       # What read queue length does an incoming req see (Count)
board.memory.mem_ctrl.rdQLenPdf::15               272                       # What read queue length does an incoming req see (Count)
board.memory.mem_ctrl.rdQLenPdf::16               182                       # What read queue length does an incoming req see (Count)
board.memory.mem_ctrl.rdQLenPdf::17               156                       # What read queue length does an incoming req see (Count)
board.memory.mem_ctrl.rdQLenPdf::18               129                       # What read queue length does an incoming req see (Count)
board.memory.mem_ctrl.rdQLenPdf::19               123                       # What read queue length does an incoming req see (Count)
board.memory.mem_ctrl.rdQLenPdf::20               100                       # What read queue length does an incoming req see (Count)
board.memory.mem_ctrl.rdQLenPdf::21                75                       # What read queue length does an incoming req see (Count)
board.memory.mem_ctrl.rdQLenPdf::22                62                       # What read queue length does an incoming req see (Count)
board.memory.mem_ctrl.rdQLenPdf::23                76                       # What read queue length does an incoming req see (Count)
board.memory.mem_ctrl.rdQLenPdf::24                61                       # What read queue length does an incoming req see (Count)
board.memory.mem_ctrl.rdQLenPdf::25                76                       # What read queue length does an incoming req see (Count)
board.memory.mem_ctrl.rdQLenPdf::26                66                       # What read queue length does an incoming req see (Count)
board.memory.mem_ctrl.rdQLenPdf::27                69                       # What read queue length does an incoming req see (Count)
board.memory.mem_ctrl.rdQLenPdf::28                62                       # What read queue length does an incoming req see (Count)
board.memory.mem_ctrl.rdQLenPdf::29                57                       # What read queue length does an incoming req see (Count)
board.memory.mem_ctrl.rdQLenPdf::30                61                       # What read queue length does an incoming req see (Count)
board.memory.mem_ctrl.rdQLenPdf::31              8416                       # What read queue length does an incoming req see (Count)
board.memory.mem_ctrl.wrQLenPdf::0                  1                       # What write queue length does an incoming req see (Count)
board.memory.mem_ctrl.wrQLenPdf::1                  1                       # What write queue length does an incoming req see (Count)
board.memory.mem_ctrl.wrQLenPdf::2                  1                       # What write queue length does an incoming req see (Count)
board.memory.mem_ctrl.wrQLenPdf::3                  1                       # What write queue length does an incoming req see (Count)
board.memory.mem_ctrl.wrQLenPdf::4                  1                       # What write queue length does an incoming req see (Count)
board.memory.mem_ctrl.wrQLenPdf::5                  1                       # What write queue length does an incoming req see (Count)
board.memory.mem_ctrl.wrQLenPdf::6                  1                       # What write queue length does an incoming req see (Count)
board.memory.mem_ctrl.wrQLenPdf::7                  1                       # What write queue length does an incoming req see (Count)
board.memory.mem_ctrl.wrQLenPdf::8                  1                       # What write queue length does an incoming req see (Count)
board.memory.mem_ctrl.wrQLenPdf::9                  1                       # What write queue length does an incoming req see (Count)
board.memory.mem_ctrl.wrQLenPdf::10                 1                       # What write queue length does an incoming req see (Count)
board.memory.mem_ctrl.wrQLenPdf::11                 1                       # What write queue length does an incoming req see (Count)
board.memory.mem_ctrl.wrQLenPdf::12                 1                       # What write queue length does an incoming req see (Count)
board.memory.mem_ctrl.wrQLenPdf::13                 1                       # What write queue length does an incoming req see (Count)
board.memory.mem_ctrl.wrQLenPdf::14                 1                       # What write queue length does an incoming req see (Count)
board.memory.mem_ctrl.wrQLenPdf::15                 2                       # What write queue length does an incoming req see (Count)
board.memory.mem_ctrl.wrQLenPdf::16                 2                       # What write queue length does an incoming req see (Count)
board.memory.mem_ctrl.wrQLenPdf::17                20                       # What write queue length does an incoming req see (Count)
board.memory.mem_ctrl.wrQLenPdf::18                47                       # What write queue length does an incoming req see (Count)
board.memory.mem_ctrl.wrQLenPdf::19                57                       # What write queue length does an incoming req see (Count)
board.memory.mem_ctrl.wrQLenPdf::20                64                       # What write queue length does an incoming req see (Count)
board.memory.mem_ctrl.wrQLenPdf::21                65                       # What write queue length does an incoming req see (Count)
board.memory.mem_ctrl.wrQLenPdf::22                61                       # What write queue length does an incoming req see (Count)
board.memory.mem_ctrl.wrQLenPdf::23                70                       # What write queue length does an incoming req see (Count)
board.memory.mem_ctrl.wrQLenPdf::24                61                       # What write queue length does an incoming req see (Count)
board.memory.mem_ctrl.wrQLenPdf::25                70                       # What write queue length does an incoming req see (Count)
board.memory.mem_ctrl.wrQLenPdf::26                67                       # What write queue length does an incoming req see (Count)
board.memory.mem_ctrl.wrQLenPdf::27                67                       # What write queue length does an incoming req see (Count)
board.memory.mem_ctrl.wrQLenPdf::28                63                       # What write queue length does an incoming req see (Count)
board.memory.mem_ctrl.wrQLenPdf::29                63                       # What write queue length does an incoming req see (Count)
board.memory.mem_ctrl.wrQLenPdf::30                60                       # What write queue length does an incoming req see (Count)
board.memory.mem_ctrl.wrQLenPdf::31                61                       # What write queue length does an incoming req see (Count)
board.memory.mem_ctrl.wrQLenPdf::32                60                       # What write queue length does an incoming req see (Count)
board.memory.mem_ctrl.wrQLenPdf::33                 7                       # What write queue length does an incoming req see (Count)
board.memory.mem_ctrl.wrQLenPdf::34                 4                       # What write queue length does an incoming req see (Count)
board.memory.mem_ctrl.wrQLenPdf::35                 2                       # What write queue length does an incoming req see (Count)
board.memory.mem_ctrl.wrQLenPdf::36                 1                       # What write queue length does an incoming req see (Count)
board.memory.mem_ctrl.wrQLenPdf::37                 1                       # What write queue length does an incoming req see (Count)
board.memory.mem_ctrl.wrQLenPdf::38                 1                       # What write queue length does an incoming req see (Count)
board.memory.mem_ctrl.wrQLenPdf::39                 4                       # What write queue length does an incoming req see (Count)
board.memory.mem_ctrl.wrQLenPdf::40                 3                       # What write queue length does an incoming req see (Count)
board.memory.mem_ctrl.wrQLenPdf::41                 4                       # What write queue length does an incoming req see (Count)
board.memory.mem_ctrl.wrQLenPdf::42                 5                       # What write queue length does an incoming req see (Count)
board.memory.mem_ctrl.wrQLenPdf::43                 5                       # What write queue length does an incoming req see (Count)
board.memory.mem_ctrl.wrQLenPdf::44                 5                       # What write queue length does an incoming req see (Count)
board.memory.mem_ctrl.wrQLenPdf::45                 5                       # What write queue length does an incoming req see (Count)
board.memory.mem_ctrl.wrQLenPdf::46                 5                       # What write queue length does an incoming req see (Count)
board.memory.mem_ctrl.wrQLenPdf::47                 5                       # What write queue length does an incoming req see (Count)
board.memory.mem_ctrl.wrQLenPdf::48                 5                       # What write queue length does an incoming req see (Count)
board.memory.mem_ctrl.wrQLenPdf::49                 6                       # What write queue length does an incoming req see (Count)
board.memory.mem_ctrl.wrQLenPdf::50                 5                       # What write queue length does an incoming req see (Count)
board.memory.mem_ctrl.wrQLenPdf::51                 6                       # What write queue length does an incoming req see (Count)
board.memory.mem_ctrl.wrQLenPdf::52                 6                       # What write queue length does an incoming req see (Count)
board.memory.mem_ctrl.wrQLenPdf::53                 5                       # What write queue length does an incoming req see (Count)
board.memory.mem_ctrl.wrQLenPdf::54                 7                       # What write queue length does an incoming req see (Count)
board.memory.mem_ctrl.wrQLenPdf::55                 0                       # What write queue length does an incoming req see (Count)
board.memory.mem_ctrl.wrQLenPdf::56                 0                       # What write queue length does an incoming req see (Count)
board.memory.mem_ctrl.wrQLenPdf::57                 0                       # What write queue length does an incoming req see (Count)
board.memory.mem_ctrl.wrQLenPdf::58                 0                       # What write queue length does an incoming req see (Count)
board.memory.mem_ctrl.wrQLenPdf::59                 0                       # What write queue length does an incoming req see (Count)
board.memory.mem_ctrl.wrQLenPdf::60                 0                       # What write queue length does an incoming req see (Count)
board.memory.mem_ctrl.wrQLenPdf::61                 0                       # What write queue length does an incoming req see (Count)
board.memory.mem_ctrl.wrQLenPdf::62                 0                       # What write queue length does an incoming req see (Count)
board.memory.mem_ctrl.wrQLenPdf::63                 0                       # What write queue length does an incoming req see (Count)
board.memory.mem_ctrl.rdPerTurnAround::samples           65                       # Reads before turning the bus around for writes (Count)
board.memory.mem_ctrl.rdPerTurnAround::mean   616.476923                       # Reads before turning the bus around for writes (Count)
board.memory.mem_ctrl.rdPerTurnAround::gmean   340.534299                       # Reads before turning the bus around for writes (Count)
board.memory.mem_ctrl.rdPerTurnAround::stdev   925.925249                       # Reads before turning the bus around for writes (Count)
board.memory.mem_ctrl.rdPerTurnAround::0-255           23     35.38%     35.38% # Reads before turning the bus around for writes (Count)
board.memory.mem_ctrl.rdPerTurnAround::256-511           20     30.77%     66.15% # Reads before turning the bus around for writes (Count)
board.memory.mem_ctrl.rdPerTurnAround::512-767           13     20.00%     86.15% # Reads before turning the bus around for writes (Count)
board.memory.mem_ctrl.rdPerTurnAround::768-1023            1      1.54%     87.69% # Reads before turning the bus around for writes (Count)
board.memory.mem_ctrl.rdPerTurnAround::1024-1279            4      6.15%     93.85% # Reads before turning the bus around for writes (Count)
board.memory.mem_ctrl.rdPerTurnAround::1536-1791            1      1.54%     95.38% # Reads before turning the bus around for writes (Count)
board.memory.mem_ctrl.rdPerTurnAround::4096-4351            2      3.08%     98.46% # Reads before turning the bus around for writes (Count)
board.memory.mem_ctrl.rdPerTurnAround::5120-5375            1      1.54%    100.00% # Reads before turning the bus around for writes (Count)
board.memory.mem_ctrl.rdPerTurnAround::total           65                       # Reads before turning the bus around for writes (Count)
board.memory.mem_ctrl.wrPerTurnAround::samples           65                       # Writes before turning the bus around for reads (Count)
board.memory.mem_ctrl.wrPerTurnAround::mean    16.030769                       # Writes before turning the bus around for reads (Count)
board.memory.mem_ctrl.wrPerTurnAround::gmean    16.029019                       # Writes before turning the bus around for reads (Count)
board.memory.mem_ctrl.wrPerTurnAround::stdev     0.248069                       # Writes before turning the bus around for reads (Count)
board.memory.mem_ctrl.wrPerTurnAround::16           64     98.46%     98.46% # Writes before turning the bus around for reads (Count)
board.memory.mem_ctrl.wrPerTurnAround::18            1      1.54%    100.00% # Writes before turning the bus around for reads (Count)
board.memory.mem_ctrl.wrPerTurnAround::total           65                       # Writes before turning the bus around for reads (Count)
board.memory.mem_ctrl.bytesReadWrQ             159552                       # Total number of bytes read from write queue (Byte)
board.memory.mem_ctrl.bytesReadSys            1402087                       # Total read bytes from the system interface side (Byte)
board.memory.mem_ctrl.bytesWrittenSys           68373                       # Total written bytes from the system interface side (Byte)
board.memory.mem_ctrl.avgRdBWSys         2754841023.21493292                       # Average system read bandwidth in Byte/s ((Byte/Second))
board.memory.mem_ctrl.avgWrBWSys         134340269.38433537                       # Average system write bandwidth in Byte/s ((Byte/Second))
board.memory.mem_ctrl.totGap                508950540                       # Total gap between requests (Tick)
board.memory.mem_ctrl.avgGap                  9021.23                       # Average gap between requests ((Tick/Count))
board.memory.mem_ctrl.requestorReadBytes::processor.cores0.core.inst       581248                       # Per-requestor bytes read from memory (Byte)
board.memory.mem_ctrl.requestorReadBytes::processor.cores0.core.data        86131                       # Per-requestor bytes read from memory (Byte)
board.memory.mem_ctrl.requestorReadBytes::processor.cores1.core.inst       121984                       # Per-requestor bytes read from memory (Byte)
board.memory.mem_ctrl.requestorReadBytes::processor.cores1.core.data         9072                       # Per-requestor bytes read from memory (Byte)
board.memory.mem_ctrl.requestorReadBytes::processor.cores2.core.inst       113088                       # Per-requestor bytes read from memory (Byte)
board.memory.mem_ctrl.requestorReadBytes::processor.cores2.core.data         8688                       # Per-requestor bytes read from memory (Byte)
board.memory.mem_ctrl.requestorReadBytes::processor.cores3.core.inst       103680                       # Per-requestor bytes read from memory (Byte)
board.memory.mem_ctrl.requestorReadBytes::processor.cores3.core.data         8665                       # Per-requestor bytes read from memory (Byte)
board.memory.mem_ctrl.requestorReadBytes::processor.cores4.core.inst        93760                       # Per-requestor bytes read from memory (Byte)
board.memory.mem_ctrl.requestorReadBytes::processor.cores4.core.data         8253                       # Per-requestor bytes read from memory (Byte)
board.memory.mem_ctrl.requestorReadBytes::processor.cores5.core.inst        84544                       # Per-requestor bytes read from memory (Byte)
board.memory.mem_ctrl.requestorReadBytes::processor.cores5.core.data         8111                       # Per-requestor bytes read from memory (Byte)
board.memory.mem_ctrl.requestorReadBytes::processor.cores6.core.inst        77056                       # Per-requestor bytes read from memory (Byte)
board.memory.mem_ctrl.requestorReadBytes::processor.cores6.core.data         7893                       # Per-requestor bytes read from memory (Byte)
board.memory.mem_ctrl.requestorReadBytes::processor.cores7.core.inst        67712                       # Per-requestor bytes read from memory (Byte)
board.memory.mem_ctrl.requestorReadBytes::processor.cores7.core.data         7576                       # Per-requestor bytes read from memory (Byte)
board.memory.mem_ctrl.requestorWriteBytes::processor.cores0.core.data         5492                       # Per-requestor bytes write to memory (Byte)
board.memory.mem_ctrl.requestorWriteBytes::processor.cores1.core.data          156                       # Per-requestor bytes write to memory (Byte)
board.memory.mem_ctrl.requestorWriteBytes::processor.cores2.core.data          148                       # Per-requestor bytes write to memory (Byte)
board.memory.mem_ctrl.requestorWriteBytes::processor.cores3.core.data          132                       # Per-requestor bytes write to memory (Byte)
board.memory.mem_ctrl.requestorWriteBytes::processor.cores4.core.data          168                       # Per-requestor bytes write to memory (Byte)
board.memory.mem_ctrl.requestorWriteBytes::processor.cores5.core.data          156                       # Per-requestor bytes write to memory (Byte)
board.memory.mem_ctrl.requestorWriteBytes::processor.cores6.core.data          144                       # Per-requestor bytes write to memory (Byte)
board.memory.mem_ctrl.requestorWriteBytes::processor.cores7.core.data          132                       # Per-requestor bytes write to memory (Byte)
board.memory.mem_ctrl.requestorReadRate::processor.cores0.core.inst 1142044562.899187564850                       # Per-requestor bytes read from memory rate ((Byte/Second))
board.memory.mem_ctrl.requestorReadRate::processor.cores0.core.data 169231447.242949545383                       # Per-requestor bytes read from memory rate ((Byte/Second))
board.memory.mem_ctrl.requestorReadRate::processor.cores1.core.inst 239675945.484018027782                       # Per-requestor bytes read from memory rate ((Byte/Second))
board.memory.mem_ctrl.requestorReadRate::processor.cores1.core.data 17824798.149191793054                       # Per-requestor bytes read from memory rate ((Byte/Second))
board.memory.mem_ctrl.requestorReadRate::processor.cores2.core.inst 222196954.706327289343                       # Per-requestor bytes read from memory rate ((Byte/Second))
board.memory.mem_ctrl.requestorReadRate::processor.cores2.core.data 17070309.338643990457                       # Per-requestor bytes read from memory rate ((Byte/Second))
board.memory.mem_ctrl.requestorReadRate::processor.cores3.core.inst 203711978.847906172276                       # Per-requestor bytes read from memory rate ((Byte/Second))
board.memory.mem_ctrl.requestorReadRate::processor.cores3.core.data 17025118.602595552802                       # Per-requestor bytes read from memory rate ((Byte/Second))
board.memory.mem_ctrl.requestorReadRate::processor.cores4.core.inst 184221017.908754676580                       # Per-requestor bytes read from memory rate ((Byte/Second))
board.memory.mem_ctrl.requestorReadRate::processor.cores4.core.data 16215614.982945309952                       # Per-requestor bytes read from memory rate ((Byte/Second))
board.memory.mem_ctrl.requestorReadRate::processor.cores5.core.inst 166113286.455607444048                       # Per-requestor bytes read from memory rate ((Byte/Second))
board.memory.mem_ctrl.requestorReadRate::processor.cores5.core.data 15936611.308211488649                       # Per-requestor bytes read from memory rate ((Byte/Second))
board.memory.mem_ctrl.requestorReadRate::processor.cores6.core.inst 151400754.649925351143                       # Per-requestor bytes read from memory rate ((Byte/Second))
board.memory.mem_ctrl.requestorReadRate::processor.cores6.core.data 15508281.723056746647                       # Per-requestor bytes read from memory rate ((Byte/Second))
board.memory.mem_ctrl.requestorReadRate::processor.cores7.core.inst 133041526.926595523953                       # Per-requestor bytes read from memory rate ((Byte/Second))
board.memory.mem_ctrl.requestorReadRate::processor.cores7.core.data 14885435.491432651877                       # Per-requestor bytes read from memory rate ((Byte/Second))
board.memory.mem_ctrl.requestorWriteRate::processor.cores0.core.data 10790761.842522190884                       # Per-requestor bytes write to memory rate ((Byte/Second))
board.memory.mem_ctrl.requestorWriteRate::processor.cores1.core.data 306511.079285044048                       # Per-requestor bytes write to memory rate ((Byte/Second))
board.memory.mem_ctrl.requestorWriteRate::processor.cores2.core.data 290792.562398631533                       # Per-requestor bytes write to memory rate ((Byte/Second))
board.memory.mem_ctrl.requestorWriteRate::processor.cores3.core.data 259355.528625806473                       # Per-requestor bytes write to memory rate ((Byte/Second))
board.memory.mem_ctrl.requestorWriteRate::processor.cores4.core.data 330088.854614662821                       # Per-requestor bytes write to memory rate ((Byte/Second))
board.memory.mem_ctrl.requestorWriteRate::processor.cores5.core.data 306511.079285044048                       # Per-requestor bytes write to memory rate ((Byte/Second))
board.memory.mem_ctrl.requestorWriteRate::processor.cores6.core.data 282933.303955425275                       # Per-requestor bytes write to memory rate ((Byte/Second))
board.memory.mem_ctrl.requestorWriteRate::processor.cores7.core.data 259355.528625806473                       # Per-requestor bytes write to memory rate ((Byte/Second))
board.memory.mem_ctrl.requestorReadAccesses::processor.cores0.core.inst         9083                       # Per-requestor read serviced memory accesses (Count)
board.memory.mem_ctrl.requestorReadAccesses::processor.cores0.core.data        14661                       # Per-requestor read serviced memory accesses (Count)
board.memory.mem_ctrl.requestorReadAccesses::processor.cores1.core.inst         1906                       # Per-requestor read serviced memory accesses (Count)
board.memory.mem_ctrl.requestorReadAccesses::processor.cores1.core.data         1714                       # Per-requestor read serviced memory accesses (Count)
board.memory.mem_ctrl.requestorReadAccesses::processor.cores2.core.inst         1767                       # Per-requestor read serviced memory accesses (Count)
board.memory.mem_ctrl.requestorReadAccesses::processor.cores2.core.data         1681                       # Per-requestor read serviced memory accesses (Count)
board.memory.mem_ctrl.requestorReadAccesses::processor.cores3.core.inst         1620                       # Per-requestor read serviced memory accesses (Count)
board.memory.mem_ctrl.requestorReadAccesses::processor.cores3.core.data         1611                       # Per-requestor read serviced memory accesses (Count)
board.memory.mem_ctrl.requestorReadAccesses::processor.cores4.core.inst         1465                       # Per-requestor read serviced memory accesses (Count)
board.memory.mem_ctrl.requestorReadAccesses::processor.cores4.core.data         1502                       # Per-requestor read serviced memory accesses (Count)
board.memory.mem_ctrl.requestorReadAccesses::processor.cores5.core.inst         1322                       # Per-requestor read serviced memory accesses (Count)
board.memory.mem_ctrl.requestorReadAccesses::processor.cores5.core.data         1485                       # Per-requestor read serviced memory accesses (Count)
board.memory.mem_ctrl.requestorReadAccesses::processor.cores6.core.inst         1204                       # Per-requestor read serviced memory accesses (Count)
board.memory.mem_ctrl.requestorReadAccesses::processor.cores6.core.data         1420                       # Per-requestor read serviced memory accesses (Count)
board.memory.mem_ctrl.requestorReadAccesses::processor.cores7.core.inst         1058                       # Per-requestor read serviced memory accesses (Count)
board.memory.mem_ctrl.requestorReadAccesses::processor.cores7.core.data         1290                       # Per-requestor read serviced memory accesses (Count)
board.memory.mem_ctrl.requestorWriteAccesses::processor.cores0.core.data         9389                       # Per-requestor write serviced memory accesses (Count)
board.memory.mem_ctrl.requestorWriteAccesses::processor.cores1.core.data          319                       # Per-requestor write serviced memory accesses (Count)
board.memory.mem_ctrl.requestorWriteAccesses::processor.cores2.core.data          319                       # Per-requestor write serviced memory accesses (Count)
board.memory.mem_ctrl.requestorWriteAccesses::processor.cores3.core.data          319                       # Per-requestor write serviced memory accesses (Count)
board.memory.mem_ctrl.requestorWriteAccesses::processor.cores4.core.data          319                       # Per-requestor write serviced memory accesses (Count)
board.memory.mem_ctrl.requestorWriteAccesses::processor.cores5.core.data          323                       # Per-requestor write serviced memory accesses (Count)
board.memory.mem_ctrl.requestorWriteAccesses::processor.cores6.core.data          319                       # Per-requestor write serviced memory accesses (Count)
board.memory.mem_ctrl.requestorWriteAccesses::processor.cores7.core.data          321                       # Per-requestor write serviced memory accesses (Count)
board.memory.mem_ctrl.requestorReadTotalLat::processor.cores0.core.inst    341434992                       # Per-requestor read total memory access latency (Tick)
board.memory.mem_ctrl.requestorReadTotalLat::processor.cores0.core.data    623359448                       # Per-requestor read total memory access latency (Tick)
board.memory.mem_ctrl.requestorReadTotalLat::processor.cores1.core.inst    140797027                       # Per-requestor read total memory access latency (Tick)
board.memory.mem_ctrl.requestorReadTotalLat::processor.cores1.core.data    239828805                       # Per-requestor read total memory access latency (Tick)
board.memory.mem_ctrl.requestorReadTotalLat::processor.cores2.core.inst    136078198                       # Per-requestor read total memory access latency (Tick)
board.memory.mem_ctrl.requestorReadTotalLat::processor.cores2.core.data    146883309                       # Per-requestor read total memory access latency (Tick)
board.memory.mem_ctrl.requestorReadTotalLat::processor.cores3.core.inst    128650506                       # Per-requestor read total memory access latency (Tick)
board.memory.mem_ctrl.requestorReadTotalLat::processor.cores3.core.data    143286924                       # Per-requestor read total memory access latency (Tick)
board.memory.mem_ctrl.requestorReadTotalLat::processor.cores4.core.inst    116735297                       # Per-requestor read total memory access latency (Tick)
board.memory.mem_ctrl.requestorReadTotalLat::processor.cores4.core.data    248479267                       # Per-requestor read total memory access latency (Tick)
board.memory.mem_ctrl.requestorReadTotalLat::processor.cores5.core.inst    108145481                       # Per-requestor read total memory access latency (Tick)
board.memory.mem_ctrl.requestorReadTotalLat::processor.cores5.core.data    234519762                       # Per-requestor read total memory access latency (Tick)
board.memory.mem_ctrl.requestorReadTotalLat::processor.cores6.core.inst    103944134                       # Per-requestor read total memory access latency (Tick)
board.memory.mem_ctrl.requestorReadTotalLat::processor.cores6.core.data    171911367                       # Per-requestor read total memory access latency (Tick)
board.memory.mem_ctrl.requestorReadTotalLat::processor.cores7.core.inst     91502387                       # Per-requestor read total memory access latency (Tick)
board.memory.mem_ctrl.requestorReadTotalLat::processor.cores7.core.data    217972888                       # Per-requestor read total memory access latency (Tick)
board.memory.mem_ctrl.requestorWriteTotalLat::processor.cores0.core.data   9821359227                       # Per-requestor write total memory access latency (Tick)
board.memory.mem_ctrl.requestorWriteTotalLat::processor.cores1.core.data    370279241                       # Per-requestor write total memory access latency (Tick)
board.memory.mem_ctrl.requestorWriteTotalLat::processor.cores2.core.data    398225210                       # Per-requestor write total memory access latency (Tick)
board.memory.mem_ctrl.requestorWriteTotalLat::processor.cores3.core.data    409189713                       # Per-requestor write total memory access latency (Tick)
board.memory.mem_ctrl.requestorWriteTotalLat::processor.cores4.core.data    374484372                       # Per-requestor write total memory access latency (Tick)
board.memory.mem_ctrl.requestorWriteTotalLat::processor.cores5.core.data    424758828                       # Per-requestor write total memory access latency (Tick)
board.memory.mem_ctrl.requestorWriteTotalLat::processor.cores6.core.data    391249287                       # Per-requestor write total memory access latency (Tick)
board.memory.mem_ctrl.requestorWriteTotalLat::processor.cores7.core.data    324984370                       # Per-requestor write total memory access latency (Tick)
board.memory.mem_ctrl.requestorReadAvgLat::processor.cores0.core.inst     37590.55                       # Per-requestor read average memory access latency ((Tick/Count))
board.memory.mem_ctrl.requestorReadAvgLat::processor.cores0.core.data     42518.21                       # Per-requestor read average memory access latency ((Tick/Count))
board.memory.mem_ctrl.requestorReadAvgLat::processor.cores1.core.inst     73870.42                       # Per-requestor read average memory access latency ((Tick/Count))
board.memory.mem_ctrl.requestorReadAvgLat::processor.cores1.core.data    139923.46                       # Per-requestor read average memory access latency ((Tick/Count))
board.memory.mem_ctrl.requestorReadAvgLat::processor.cores2.core.inst     77010.86                       # Per-requestor read average memory access latency ((Tick/Count))
board.memory.mem_ctrl.requestorReadAvgLat::processor.cores2.core.data     87378.53                       # Per-requestor read average memory access latency ((Tick/Count))
board.memory.mem_ctrl.requestorReadAvgLat::processor.cores3.core.inst     79413.89                       # Per-requestor read average memory access latency ((Tick/Count))
board.memory.mem_ctrl.requestorReadAvgLat::processor.cores3.core.data     88942.85                       # Per-requestor read average memory access latency ((Tick/Count))
board.memory.mem_ctrl.requestorReadAvgLat::processor.cores4.core.inst     79682.80                       # Per-requestor read average memory access latency ((Tick/Count))
board.memory.mem_ctrl.requestorReadAvgLat::processor.cores4.core.data    165432.27                       # Per-requestor read average memory access latency ((Tick/Count))
board.memory.mem_ctrl.requestorReadAvgLat::processor.cores5.core.inst     81804.45                       # Per-requestor read average memory access latency ((Tick/Count))
board.memory.mem_ctrl.requestorReadAvgLat::processor.cores5.core.data    157925.77                       # Per-requestor read average memory access latency ((Tick/Count))
board.memory.mem_ctrl.requestorReadAvgLat::processor.cores6.core.inst     86332.34                       # Per-requestor read average memory access latency ((Tick/Count))
board.memory.mem_ctrl.requestorReadAvgLat::processor.cores6.core.data    121064.34                       # Per-requestor read average memory access latency ((Tick/Count))
board.memory.mem_ctrl.requestorReadAvgLat::processor.cores7.core.inst     86486.19                       # Per-requestor read average memory access latency ((Tick/Count))
board.memory.mem_ctrl.requestorReadAvgLat::processor.cores7.core.data    168971.23                       # Per-requestor read average memory access latency ((Tick/Count))
board.memory.mem_ctrl.requestorWriteAvgLat::processor.cores0.core.data   1046049.55                       # Per-requestor write average memory access latency ((Tick/Count))
board.memory.mem_ctrl.requestorWriteAvgLat::processor.cores1.core.data   1160749.97                       # Per-requestor write average memory access latency ((Tick/Count))
board.memory.mem_ctrl.requestorWriteAvgLat::processor.cores2.core.data   1248354.89                       # Per-requestor write average memory access latency ((Tick/Count))
board.memory.mem_ctrl.requestorWriteAvgLat::processor.cores3.core.data   1282726.37                       # Per-requestor write average memory access latency ((Tick/Count))
board.memory.mem_ctrl.requestorWriteAvgLat::processor.cores4.core.data   1173932.20                       # Per-requestor write average memory access latency ((Tick/Count))
board.memory.mem_ctrl.requestorWriteAvgLat::processor.cores5.core.data   1315042.81                       # Per-requestor write average memory access latency ((Tick/Count))
board.memory.mem_ctrl.requestorWriteAvgLat::processor.cores6.core.data   1226486.79                       # Per-requestor write average memory access latency ((Tick/Count))
board.memory.mem_ctrl.requestorWriteAvgLat::processor.cores7.core.data   1012412.37                       # Per-requestor write average memory access latency ((Tick/Count))
board.memory.mem_ctrl.dram.bytesRead::processor.cores0.core.inst       581248                       # Number of bytes read from this memory (Byte)
board.memory.mem_ctrl.dram.bytesRead::processor.cores0.core.data        98372                       # Number of bytes read from this memory (Byte)
board.memory.mem_ctrl.dram.bytesRead::processor.cores1.core.inst       121920                       # Number of bytes read from this memory (Byte)
board.memory.mem_ctrl.dram.bytesRead::processor.cores1.core.data         9345                       # Number of bytes read from this memory (Byte)
board.memory.mem_ctrl.dram.bytesRead::processor.cores2.core.inst       113024                       # Number of bytes read from this memory (Byte)
board.memory.mem_ctrl.dram.bytesRead::processor.cores2.core.data         9209                       # Number of bytes read from this memory (Byte)
board.memory.mem_ctrl.dram.bytesRead::processor.cores3.core.inst       103616                       # Number of bytes read from this memory (Byte)
board.memory.mem_ctrl.dram.bytesRead::processor.cores3.core.data         8957                       # Number of bytes read from this memory (Byte)
board.memory.mem_ctrl.dram.bytesRead::processor.cores4.core.inst        93696                       # Number of bytes read from this memory (Byte)
board.memory.mem_ctrl.dram.bytesRead::processor.cores4.core.data         8513                       # Number of bytes read from this memory (Byte)
board.memory.mem_ctrl.dram.bytesRead::processor.cores5.core.inst        84544                       # Number of bytes read from this memory (Byte)
board.memory.mem_ctrl.dram.bytesRead::processor.cores5.core.data         8477                       # Number of bytes read from this memory (Byte)
board.memory.mem_ctrl.dram.bytesRead::processor.cores6.core.inst        76992                       # Number of bytes read from this memory (Byte)
board.memory.mem_ctrl.dram.bytesRead::processor.cores6.core.data         8241                       # Number of bytes read from this memory (Byte)
board.memory.mem_ctrl.dram.bytesRead::processor.cores7.core.inst        67648                       # Number of bytes read from this memory (Byte)
board.memory.mem_ctrl.dram.bytesRead::processor.cores7.core.data         7765                       # Number of bytes read from this memory (Byte)
board.memory.mem_ctrl.dram.bytesRead::total      1401567                       # Number of bytes read from this memory (Byte)
board.memory.mem_ctrl.dram.bytesInstRead::processor.cores0.core.inst       581248                       # Number of instructions bytes read from this memory (Byte)
board.memory.mem_ctrl.dram.bytesInstRead::processor.cores1.core.inst       121920                       # Number of instructions bytes read from this memory (Byte)
board.memory.mem_ctrl.dram.bytesInstRead::processor.cores2.core.inst       113024                       # Number of instructions bytes read from this memory (Byte)
board.memory.mem_ctrl.dram.bytesInstRead::processor.cores3.core.inst       103616                       # Number of instructions bytes read from this memory (Byte)
board.memory.mem_ctrl.dram.bytesInstRead::processor.cores4.core.inst        93696                       # Number of instructions bytes read from this memory (Byte)
board.memory.mem_ctrl.dram.bytesInstRead::processor.cores5.core.inst        84544                       # Number of instructions bytes read from this memory (Byte)
board.memory.mem_ctrl.dram.bytesInstRead::processor.cores6.core.inst        76992                       # Number of instructions bytes read from this memory (Byte)
board.memory.mem_ctrl.dram.bytesInstRead::processor.cores7.core.inst        67648                       # Number of instructions bytes read from this memory (Byte)
board.memory.mem_ctrl.dram.bytesInstRead::total      1242688                       # Number of instructions bytes read from this memory (Byte)
board.memory.mem_ctrl.dram.bytesWritten::processor.cores0.core.data        57737                       # Number of bytes written to this memory (Byte)
board.memory.mem_ctrl.dram.bytesWritten::processor.cores1.core.data         1516                       # Number of bytes written to this memory (Byte)
board.memory.mem_ctrl.dram.bytesWritten::processor.cores2.core.data         1516                       # Number of bytes written to this memory (Byte)
board.memory.mem_ctrl.dram.bytesWritten::processor.cores3.core.data         1516                       # Number of bytes written to this memory (Byte)
board.memory.mem_ctrl.dram.bytesWritten::processor.cores4.core.data         1516                       # Number of bytes written to this memory (Byte)
board.memory.mem_ctrl.dram.bytesWritten::processor.cores5.core.data         1532                       # Number of bytes written to this memory (Byte)
board.memory.mem_ctrl.dram.bytesWritten::processor.cores6.core.data         1516                       # Number of bytes written to this memory (Byte)
board.memory.mem_ctrl.dram.bytesWritten::processor.cores7.core.data         1524                       # Number of bytes written to this memory (Byte)
board.memory.mem_ctrl.dram.bytesWritten::total        68373                       # Number of bytes written to this memory (Byte)
board.memory.mem_ctrl.dram.numReads::processor.cores0.core.inst         9082                       # Number of read requests responded to by this memory (Count)
board.memory.mem_ctrl.dram.numReads::processor.cores0.core.data        14661                       # Number of read requests responded to by this memory (Count)
board.memory.mem_ctrl.dram.numReads::processor.cores1.core.inst         1905                       # Number of read requests responded to by this memory (Count)
board.memory.mem_ctrl.dram.numReads::processor.cores1.core.data         1713                       # Number of read requests responded to by this memory (Count)
board.memory.mem_ctrl.dram.numReads::processor.cores2.core.inst         1766                       # Number of read requests responded to by this memory (Count)
board.memory.mem_ctrl.dram.numReads::processor.cores2.core.data         1681                       # Number of read requests responded to by this memory (Count)
board.memory.mem_ctrl.dram.numReads::processor.cores3.core.inst         1619                       # Number of read requests responded to by this memory (Count)
board.memory.mem_ctrl.dram.numReads::processor.cores3.core.data         1610                       # Number of read requests responded to by this memory (Count)
board.memory.mem_ctrl.dram.numReads::processor.cores4.core.inst         1464                       # Number of read requests responded to by this memory (Count)
board.memory.mem_ctrl.dram.numReads::processor.cores4.core.data         1502                       # Number of read requests responded to by this memory (Count)
board.memory.mem_ctrl.dram.numReads::processor.cores5.core.inst         1321                       # Number of read requests responded to by this memory (Count)
board.memory.mem_ctrl.dram.numReads::processor.cores5.core.data         1485                       # Number of read requests responded to by this memory (Count)
board.memory.mem_ctrl.dram.numReads::processor.cores6.core.inst         1203                       # Number of read requests responded to by this memory (Count)
board.memory.mem_ctrl.dram.numReads::processor.cores6.core.data         1420                       # Number of read requests responded to by this memory (Count)
board.memory.mem_ctrl.dram.numReads::processor.cores7.core.inst         1057                       # Number of read requests responded to by this memory (Count)
board.memory.mem_ctrl.dram.numReads::processor.cores7.core.data         1290                       # Number of read requests responded to by this memory (Count)
board.memory.mem_ctrl.dram.numReads::total        44779                       # Number of read requests responded to by this memory (Count)
board.memory.mem_ctrl.dram.numWrites::processor.cores0.core.data         9389                       # Number of write requests responded to by this memory (Count)
board.memory.mem_ctrl.dram.numWrites::processor.cores1.core.data          319                       # Number of write requests responded to by this memory (Count)
board.memory.mem_ctrl.dram.numWrites::processor.cores2.core.data          319                       # Number of write requests responded to by this memory (Count)
board.memory.mem_ctrl.dram.numWrites::processor.cores3.core.data          319                       # Number of write requests responded to by this memory (Count)
board.memory.mem_ctrl.dram.numWrites::processor.cores4.core.data          319                       # Number of write requests responded to by this memory (Count)
board.memory.mem_ctrl.dram.numWrites::processor.cores5.core.data          323                       # Number of write requests responded to by this memory (Count)
board.memory.mem_ctrl.dram.numWrites::processor.cores6.core.data          319                       # Number of write requests responded to by this memory (Count)
board.memory.mem_ctrl.dram.numWrites::processor.cores7.core.data          321                       # Number of write requests responded to by this memory (Count)
board.memory.mem_ctrl.dram.numWrites::total        11628                       # Number of write requests responded to by this memory (Count)
board.memory.mem_ctrl.dram.bwRead::processor.cores0.core.inst   1142044563                       # Total read bandwidth from this memory ((Byte/Second))
board.memory.mem_ctrl.dram.bwRead::processor.cores0.core.data    193282743                       # Total read bandwidth from this memory ((Byte/Second))
board.memory.mem_ctrl.dram.bwRead::processor.cores1.core.inst    239550197                       # Total read bandwidth from this memory ((Byte/Second))
board.memory.mem_ctrl.dram.bwRead::processor.cores1.core.data     18361193                       # Total read bandwidth from this memory ((Byte/Second))
board.memory.mem_ctrl.dram.bwRead::processor.cores2.core.inst    222071207                       # Total read bandwidth from this memory ((Byte/Second))
board.memory.mem_ctrl.dram.bwRead::processor.cores2.core.data     18093978                       # Total read bandwidth from this memory ((Byte/Second))
board.memory.mem_ctrl.dram.bwRead::processor.cores3.core.inst    203586231                       # Total read bandwidth from this memory ((Byte/Second))
board.memory.mem_ctrl.dram.bwRead::processor.cores3.core.data     17598844                       # Total read bandwidth from this memory ((Byte/Second))
board.memory.mem_ctrl.dram.bwRead::processor.cores4.core.inst    184095270                       # Total read bandwidth from this memory ((Byte/Second))
board.memory.mem_ctrl.dram.bwRead::processor.cores4.core.data     16726467                       # Total read bandwidth from this memory ((Byte/Second))
board.memory.mem_ctrl.dram.bwRead::processor.cores5.core.inst    166113286                       # Total read bandwidth from this memory ((Byte/Second))
board.memory.mem_ctrl.dram.bwRead::processor.cores5.core.data     16655733                       # Total read bandwidth from this memory ((Byte/Second))
board.memory.mem_ctrl.dram.bwRead::processor.cores6.core.inst    151275007                       # Total read bandwidth from this memory ((Byte/Second))
board.memory.mem_ctrl.dram.bwRead::processor.cores6.core.data     16192037                       # Total read bandwidth from this memory ((Byte/Second))
board.memory.mem_ctrl.dram.bwRead::processor.cores7.core.inst    132915779                       # Total read bandwidth from this memory ((Byte/Second))
board.memory.mem_ctrl.dram.bwRead::processor.cores7.core.data     15256785                       # Total read bandwidth from this memory ((Byte/Second))
board.memory.mem_ctrl.dram.bwRead::total   2753819320                       # Total read bandwidth from this memory ((Byte/Second))
board.memory.mem_ctrl.dram.bwInstRead::processor.cores0.core.inst   1142044563                       # Instruction read bandwidth from this memory ((Byte/Second))
board.memory.mem_ctrl.dram.bwInstRead::processor.cores1.core.inst    239550197                       # Instruction read bandwidth from this memory ((Byte/Second))
board.memory.mem_ctrl.dram.bwInstRead::processor.cores2.core.inst    222071207                       # Instruction read bandwidth from this memory ((Byte/Second))
board.memory.mem_ctrl.dram.bwInstRead::processor.cores3.core.inst    203586231                       # Instruction read bandwidth from this memory ((Byte/Second))
board.memory.mem_ctrl.dram.bwInstRead::processor.cores4.core.inst    184095270                       # Instruction read bandwidth from this memory ((Byte/Second))
board.memory.mem_ctrl.dram.bwInstRead::processor.cores5.core.inst    166113286                       # Instruction read bandwidth from this memory ((Byte/Second))
board.memory.mem_ctrl.dram.bwInstRead::processor.cores6.core.inst    151275007                       # Instruction read bandwidth from this memory ((Byte/Second))
board.memory.mem_ctrl.dram.bwInstRead::processor.cores7.core.inst    132915779                       # Instruction read bandwidth from this memory ((Byte/Second))
board.memory.mem_ctrl.dram.bwInstRead::total   2441651539                       # Instruction read bandwidth from this memory ((Byte/Second))
board.memory.mem_ctrl.dram.bwWrite::processor.cores0.core.data    113442501                       # Write bandwidth from this memory ((Byte/Second))
board.memory.mem_ctrl.dram.bwWrite::processor.cores1.core.data      2978659                       # Write bandwidth from this memory ((Byte/Second))
board.memory.mem_ctrl.dram.bwWrite::processor.cores2.core.data      2978659                       # Write bandwidth from this memory ((Byte/Second))
board.memory.mem_ctrl.dram.bwWrite::processor.cores3.core.data      2978659                       # Write bandwidth from this memory ((Byte/Second))
[...]
board.processor.cores7.core.cc_buffer.decode_buffer_occupancy_histogram::26           68      0.02%     99.90% # Distribution of decode buffer occupancy (Unspecified)
board.processor.cores7.core.cc_buffer.decode_buffer_occupancy_histogram::27           26      0.01%     99.91% # Distribution of decode buffer occupancy (Unspecified)
board.processor.cores7.core.cc_buffer.decode_buffer_occupancy_histogram::28           57      0.01%     99.92% # Distribution of decode buffer occupancy (Unspecified)
board.processor.cores7.core.cc_buffer.decode_buffer_occupancy_histogram::29            6      0.00%     99.92% # Distribution of decode buffer occupancy (Unspecified)
board.processor.cores7.core.cc_buffer.decode_buffer_occupancy_histogram::30           56      0.01%     99.94% # Distribution of decode buffer occupancy (Unspecified)
board.processor.cores7.core.cc_buffer.decode_buffer_occupancy_histogram::31           10      0.00%     99.94% # Distribution of decode buffer occupancy (Unspecified)
board.processor.cores7.core.cc_buffer.decode_buffer_occupancy_histogram::32           65      0.02%     99.96% # Distribution of decode buffer occupancy (Unspecified)
board.processor.cores7.core.cc_buffer.decode_buffer_occupancy_histogram::33            3      0.00%     99.96% # Distribution of decode buffer occupancy (Unspecified)
board.processor.cores7.core.cc_buffer.decode_buffer_occupancy_histogram::34           38      0.01%     99.97% # Distribution of decode buffer occupancy (Unspecified)
board.processor.cores7.core.cc_buffer.decode_buffer_occupancy_histogram::35            3      0.00%     99.97% # Distribution of decode buffer occupancy (Unspecified)
board.processor.cores7.core.cc_buffer.decode_buffer_occupancy_histogram::36           74      0.02%     99.99% # Distribution of decode buffer occupancy (Unspecified)
board.processor.cores7.core.cc_buffer.decode_buffer_occupancy_histogram::37            1      0.00%     99.99% # Distribution of decode buffer occupancy (Unspecified)
board.processor.cores7.core.cc_buffer.decode_buffer_occupancy_histogram::38            6      0.00%     99.99% # Distribution of decode buffer occupancy (Unspecified)
board.processor.cores7.core.cc_buffer.decode_buffer_occupancy_histogram::39            2      0.00%     99.99% # Distribution of decode buffer occupancy (Unspecified)
board.processor.cores7.core.cc_buffer.decode_buffer_occupancy_histogram::40            3      0.00%     99.99% # Distribution of decode buffer occupancy (Unspecified)
board.processor.cores7.core.cc_buffer.decode_buffer_occupancy_histogram::41            1      0.00%     99.99% # Distribution of decode buffer occupancy (Unspecified)
board.processor.cores7.core.cc_buffer.decode_buffer_occupancy_histogram::42            3      0.00%     99.99% # Distribution of decode buffer occupancy (Unspecified)
board.processor.cores7.core.cc_buffer.decode_buffer_occupancy_histogram::43            2      0.00%     99.99% # Distribution of decode buffer occupancy (Unspecified)
board.processor.cores7.core.cc_buffer.decode_buffer_occupancy_histogram::44            3      0.00%     99.99% # Distribution of decode buffer occupancy (Unspecified)
board.processor.cores7.core.cc_buffer.decode_buffer_occupancy_histogram::45            1      0.00%     99.99% # Distribution of decode buffer occupancy (Unspecified)
board.processor.cores7.core.cc_buffer.decode_buffer_occupancy_histogram::46            2      0.00%     99.99% # Distribution of decode buffer occupancy (Unspecified)
board.processor.cores7.core.cc_buffer.decode_buffer_occupancy_histogram::47            0      0.00%     99.99% # Distribution of decode buffer occupancy (Unspecified)
board.processor.cores7.core.cc_buffer.decode_buffer_occupancy_histogram::48            3      0.00%    100.00% # Distribution of decode buffer occupancy (Unspecified)
board.processor.cores7.core.cc_buffer.decode_buffer_occupancy_histogram::49            0      0.00%    100.00% # Distribution of decode buffer occupancy (Unspecified)
board.processor.cores7.core.cc_buffer.decode_buffer_occupancy_histogram::50            1      0.00%    100.00% # Distribution of decode buffer occupancy (Unspecified)
board.processor.cores7.core.cc_buffer.decode_buffer_occupancy_histogram::51            0      0.00%    100.00% # Distribution of decode buffer occupancy (Unspecified)
board.processor.cores7.core.cc_buffer.decode_buffer_occupancy_histogram::52            1      0.00%    100.00% # Distribution of decode buffer occupancy (Unspecified)
board.processor.cores7.core.cc_buffer.decode_buffer_occupancy_histogram::53            0      0.00%    100.00% # Distribution of decode buffer occupancy (Unspecified)
board.processor.cores7.core.cc_buffer.decode_buffer_occupancy_histogram::54            1      0.00%    100.00% # Distribution of decode buffer occupancy (Unspecified)
board.processor.cores7.core.cc_buffer.decode_buffer_occupancy_histogram::55            0      0.00%    100.00% # Distribution of decode buffer occupancy (Unspecified)
board.processor.cores7.core.cc_buffer.decode_buffer_occupancy_histogram::56            1      0.00%    100.00% # Distribution of decode buffer occupancy (Unspecified)
board.processor.cores7.core.cc_buffer.decode_buffer_occupancy_histogram::57            0      0.00%    100.00% # Distribution of decode buffer occupancy (Unspecified)
board.processor.cores7.core.cc_buffer.decode_buffer_occupancy_histogram::58            1      0.00%    100.00% # Distribution of decode buffer occupancy (Unspecified)
board.processor.cores7.core.cc_buffer.decode_buffer_occupancy_histogram::59            0      0.00%    100.00% # Distribution of decode buffer occupancy (Unspecified)
board.processor.cores7.core.cc_buffer.decode_buffer_occupancy_histogram::60            9      0.00%    100.00% # Distribution of decode buffer occupancy (Unspecified)
board.processor.cores7.core.cc_buffer.decode_buffer_occupancy_histogram::61            0      0.00%    100.00% # Distribution of decode buffer occupancy (Unspecified)
board.processor.cores7.core.cc_buffer.decode_buffer_occupancy_histogram::62            1      0.00%    100.00% # Distribution of decode buffer occupancy (Unspecified)
board.processor.cores7.core.cc_buffer.decode_buffer_occupancy_histogram::63            0      0.00%    100.00% # Distribution of decode buffer occupancy (Unspecified)
board.processor.cores7.core.cc_buffer.decode_buffer_occupancy_histogram::64            2      0.00%    100.00% # Distribution of decode buffer occupancy (Unspecified)
board.processor.cores7.core.cc_buffer.decode_buffer_occupancy_histogram::overflows            0      0.00%    100.00% # Distribution of decode buffer occupancy (Unspecified)
board.processor.cores7.core.cc_buffer.decode_buffer_occupancy_histogram::min_value            0                       # Distribution of decode buffer occupancy (Unspecified)
board.processor.cores7.core.cc_buffer.decode_buffer_occupancy_histogram::max_value           64                       # Distribution of decode buffer occupancy (Unspecified)
board.processor.cores7.core.cc_buffer.decode_buffer_occupancy_histogram::total       382097                       # Distribution of decode buffer occupancy (Unspecified)
board.processor.cores7.core.cc_buffer.execute_buffer_occupancy_histogram::samples       382097                       # Distribution of decode buffer occupancy (Unspecified)
board.processor.cores7.core.cc_buffer.execute_buffer_occupancy_histogram::mean     0.056284                       # Distribution of decode buffer occupancy (Unspecified)
board.processor.cores7.core.cc_buffer.execute_buffer_occupancy_histogram::stdev     1.078784                       # Distribution of decode buffer occupancy (Unspecified)
board.processor.cores7.core.cc_buffer.execute_buffer_occupancy_histogram::underflows            0      0.00%      0.00% # Distribution of decode buffer occupancy (Unspecified)
board.processor.cores7.core.cc_buffer.execute_buffer_occupancy_histogram::0       376287     98.48%     98.48% # Distribution of decode buffer occupancy (Unspecified)
board.processor.cores7.core.cc_buffer.execute_buffer_occupancy_histogram::1         1278      0.33%     98.81% # Distribution of decode buffer occupancy (Unspecified)
board.processor.cores7.core.cc_buffer.execute_buffer_occupancy_histogram::2         3738      0.98%     99.79% # Distribution of decode buffer occupancy (Unspecified)
board.processor.cores7.core.cc_buffer.execute_buffer_occupancy_histogram::3           24      0.01%     99.80% # Distribution of decode buffer occupancy (Unspecified)
board.processor.cores7.core.cc_buffer.execute_buffer_occupancy_histogram::4          152      0.04%     99.84% # Distribution of decode buffer occupancy (Unspecified)
board.processor.cores7.core.cc_buffer.execute_buffer_occupancy_histogram::5           86      0.02%     99.86% # Distribution of decode buffer occupancy (Unspecified)
board.processor.cores7.core.cc_buffer.execute_buffer_occupancy_histogram::6           88      0.02%     99.88% # Distribution of decode buffer occupancy (Unspecified)
board.processor.cores7.core.cc_buffer.execute_buffer_occupancy_histogram::7          127      0.03%     99.92% # Distribution of decode buffer occupancy (Unspecified)
board.processor.cores7.core.cc_buffer.execute_buffer_occupancy_histogram::8           10      0.00%     99.92% # Distribution of decode buffer occupancy (Unspecified)
board.processor.cores7.core.cc_buffer.execute_buffer_occupancy_histogram::9           65      0.02%     99.94% # Distribution of decode buffer occupancy (Unspecified)
board.processor.cores7.core.cc_buffer.execute_buffer_occupancy_histogram::10            1      0.00%     99.94% # Distribution of decode buffer occupancy (Unspecified)
board.processor.cores7.core.cc_buffer.execute_buffer_occupancy_histogram::11            1      0.00%     99.94% # Distribution of decode buffer occupancy (Unspecified)
board.processor.cores7.core.cc_buffer.execute_buffer_occupancy_histogram::12            2      0.00%     99.94% # Distribution of decode buffer occupancy (Unspecified)
board.processor.cores7.core.cc_buffer.execute_buffer_occupancy_histogram::13            0      0.00%     99.94% # Distribution of decode buffer occupancy (Unspecified)
board.processor.cores7.core.cc_buffer.execute_buffer_occupancy_histogram::14            1      0.00%     99.94% # Distribution of decode buffer occupancy (Unspecified)
board.processor.cores7.core.cc_buffer.execute_buffer_occupancy_histogram::15            0      0.00%     99.94% # Distribution of decode buffer occupancy (Unspecified)
board.processor.cores7.core.cc_buffer.execute_buffer_occupancy_histogram::16            2      0.00%     99.94% # Distribution of decode buffer occupancy (Unspecified)
board.processor.cores7.core.cc_buffer.execute_buffer_occupancy_histogram::17            0      0.00%     99.94% # Distribution of decode buffer occupancy (Unspecified)
board.processor.cores7.core.cc_buffer.execute_buffer_occupancy_histogram::18            3      0.00%     99.94% # Distribution of decode buffer occupancy (Unspecified)
board.processor.cores7.core.cc_buffer.execute_buffer_occupancy_histogram::19            1      0.00%     99.94% # Distribution of decode buffer occupancy (Unspecified)
board.processor.cores7.core.cc_buffer.execute_buffer_occupancy_histogram::20            1      0.00%     99.94% # Distribution of decode buffer occupancy (Unspecified)
board.processor.cores7.core.cc_buffer.execute_buffer_occupancy_histogram::21            0      0.00%     99.94% # Distribution of decode buffer occupancy (Unspecified)
board.processor.cores7.core.cc_buffer.execute_buffer_occupancy_histogram::22            1      0.00%     99.94% # Distribution of decode buffer occupancy (Unspecified)
board.processor.cores7.core.cc_buffer.execute_buffer_occupancy_histogram::23            1      0.00%     99.94% # Distribution of decode buffer occupancy (Unspecified)
board.processor.cores7.core.cc_buffer.execute_buffer_occupancy_histogram::24            1      0.00%     99.94% # Distribution of decode buffer occupancy (Unspecified)
board.processor.cores7.core.cc_buffer.execute_buffer_occupancy_histogram::25            1      0.00%     99.94% # Distribution of decode buffer occupancy (Unspecified)
board.processor.cores7.core.cc_buffer.execute_buffer_occupancy_histogram::26            1      0.00%     99.94% # Distribution of decode buffer occupancy (Unspecified)
board.processor.cores7.core.cc_buffer.execute_buffer_occupancy_histogram::27            0      0.00%     99.94% # Distribution of decode buffer occupancy (Unspecified)
board.processor.cores7.core.cc_buffer.execute_buffer_occupancy_histogram::28            1      0.00%     99.94% # Distribution of decode buffer occupancy (Unspecified)
board.processor.cores7.core.cc_buffer.execute_buffer_occupancy_histogram::29            1      0.00%     99.94% # Distribution of decode buffer occupancy (Unspecified)
board.processor.cores7.core.cc_buffer.execute_buffer_occupancy_histogram::30            1      0.00%     99.94% # Distribution of decode buffer occupancy (Unspecified)
board.processor.cores7.core.cc_buffer.execute_buffer_occupancy_histogram::31            0      0.00%     99.94% # Distribution of decode buffer occupancy (Unspecified)
board.processor.cores7.core.cc_buffer.execute_buffer_occupancy_histogram::32            2      0.00%     99.94% # Distribution of decode buffer occupancy (Unspecified)
board.processor.cores7.core.cc_buffer.execute_buffer_occupancy_histogram::33           21      0.01%     99.95% # Distribution of decode buffer occupancy (Unspecified)
board.processor.cores7.core.cc_buffer.execute_buffer_occupancy_histogram::34           43      0.01%     99.96% # Distribution of decode buffer occupancy (Unspecified)
board.processor.cores7.core.cc_buffer.execute_buffer_occupancy_histogram::35           42      0.01%     99.97% # Distribution of decode buffer occupancy (Unspecified)
board.processor.cores7.core.cc_buffer.execute_buffer_occupancy_histogram::36           40      0.01%     99.98% # Distribution of decode buffer occupancy (Unspecified)
board.processor.cores7.core.cc_buffer.execute_buffer_occupancy_histogram::37            1      0.00%     99.98% # Distribution of decode buffer occupancy (Unspecified)
board.processor.cores7.core.cc_buffer.execute_buffer_occupancy_histogram::38            1      0.00%     99.98% # Distribution of decode buffer occupancy (Unspecified)
board.processor.cores7.core.cc_buffer.execute_buffer_occupancy_histogram::39            1      0.00%     99.98% # Distribution of decode buffer occupancy (Unspecified)
board.processor.cores7.core.cc_buffer.execute_buffer_occupancy_histogram::40            3      0.00%     99.98% # Distribution of decode buffer occupancy (Unspecified)
board.processor.cores7.core.cc_buffer.execute_buffer_occupancy_histogram::41            0      0.00%     99.98% # Distribution of decode buffer occupancy (Unspecified)
board.processor.cores7.core.cc_buffer.execute_buffer_occupancy_histogram::42            1      0.00%     99.98% # Distribution of decode buffer occupancy (Unspecified)
board.processor.cores7.core.cc_buffer.execute_buffer_occupancy_histogram::43            0      0.00%     99.98% # Distribution of decode buffer occupancy (Unspecified)
board.processor.cores7.core.cc_buffer.execute_buffer_occupancy_histogram::44            2      0.00%     99.98% # Distribution of decode buffer occupancy (Unspecified)
board.processor.cores7.core.cc_buffer.execute_buffer_occupancy_histogram::45            0      0.00%     99.98% # Distribution of decode buffer occupancy (Unspecified)
board.processor.cores7.core.cc_buffer.execute_buffer_occupancy_histogram::46            2      0.00%     99.98% # Distribution of decode buffer occupancy (Unspecified)
board.processor.cores7.core.cc_buffer.execute_buffer_occupancy_histogram::47            0      0.00%     99.98% # Distribution of decode buffer occupancy (Unspecified)
board.processor.cores7.core.cc_buffer.execute_buffer_occupancy_histogram::48            1      0.00%     99.98% # Distribution of decode buffer occupancy (Unspecified)
board.processor.cores7.core.cc_buffer.execute_buffer_occupancy_histogram::49            0      0.00%     99.98% # Distribution of decode buffer occupancy (Unspecified)
board.processor.cores7.core.cc_buffer.execute_buffer_occupancy_histogram::50            2      0.00%     99.98% # Distribution of decode buffer occupancy (Unspecified)
board.processor.cores7.core.cc_buffer.execute_buffer_occupancy_histogram::51            1      0.00%     99.98% # Distribution of decode buffer occupancy (Unspecified)
board.processor.cores7.core.cc_buffer.execute_buffer_occupancy_histogram::52            1      0.00%     99.98% # Distribution of decode buffer occupancy (Unspecified)
board.processor.cores7.core.cc_buffer.execute_buffer_occupancy_histogram::53            0      0.00%     99.98% # Distribution of decode buffer occupancy (Unspecified)
board.processor.cores7.core.cc_buffer.execute_buffer_occupancy_histogram::54            1      0.00%     99.99% # Distribution of decode buffer occupancy (Unspecified)
board.processor.cores7.core.cc_buffer.execute_buffer_occupancy_histogram::55            1      0.00%     99.99% # Distribution of decode buffer occupancy (Unspecified)
board.processor.cores7.core.cc_buffer.execute_buffer_occupancy_histogram::56           19      0.00%     99.99% # Distribution of decode buffer occupancy (Unspecified)
board.processor.cores7.core.cc_buffer.execute_buffer_occupancy_histogram::57            0      0.00%     99.99% # Distribution of decode buffer occupancy (Unspecified)
board.processor.cores7.core.cc_buffer.execute_buffer_occupancy_histogram::58           33      0.01%    100.00% # Distribution of decode buffer occupancy (Unspecified)
board.processor.cores7.core.cc_buffer.execute_buffer_occupancy_histogram::59            0      0.00%    100.00% # Distribution of decode buffer occupancy (Unspecified)
board.processor.cores7.core.cc_buffer.execute_buffer_occupancy_histogram::60            1      0.00%    100.00% # Distribution of decode buffer occupancy (Unspecified)
board.processor.cores7.core.cc_buffer.execute_buffer_occupancy_histogram::61            0      0.00%    100.00% # Distribution of decode buffer occupancy (Unspecified)
board.processor.cores7.core.cc_buffer.execute_buffer_occupancy_histogram::62            3      0.00%    100.00% # Distribution of decode buffer occupancy (Unspecified)
board.processor.cores7.core.cc_buffer.execute_buffer_occupancy_histogram::63            0      0.00%    100.00% # Distribution of decode buffer occupancy (Unspecified)
board.processor.cores7.core.cc_buffer.execute_buffer_occupancy_histogram::64            0      0.00%    100.00% # Distribution of decode buffer occupancy (Unspecified)
board.processor.cores7.core.cc_buffer.execute_buffer_occupancy_histogram::overflows            0      0.00%    100.00% # Distribution of decode buffer occupancy (Unspecified)
board.processor.cores7.core.cc_buffer.execute_buffer_occupancy_histogram::min_value            0                       # Distribution of decode buffer occupancy (Unspecified)
board.processor.cores7.core.cc_buffer.execute_buffer_occupancy_histogram::max_value           62                       # Distribution of decode buffer occupancy (Unspecified)
board.processor.cores7.core.cc_buffer.execute_buffer_occupancy_histogram::total       382097                       # Distribution of decode buffer occupancy (Unspecified)
board.processor.cores7.core.cc_buffer.ooo_stall_signals           40                       # Number of cycles stalled due to buffer (Unspecified)
board.processor.cores7.core.cc_buffer.regfile_insts_processed         9048                       # Number of cycles stalled due to buffer (Unspecified)

---------- End Simulation Statistics   ----------
