
---------- Begin Simulation Statistics ----------
simSeconds                                   0.000021                       # Number of seconds simulated (Second)
simTicks                                     21074904                       # Number of ticks simulated (Tick)
finalTick                                    21074904                       # Number of ticks from beginning of simulation (restored from checkpoints and never reset) (Tick)
simFreq                                  1000000000000                       # The number of ticks per simulated second ((Tick/Second))
hostSeconds                                      0.33                       # Real time elapsed on the host (Second)
hostTickRate                                 63916997                       # The number of ticks simulated per host second (ticks/s) ((Tick/Second))
hostMemory                                    8787568                       # Number of bytes of host memory used (Byte)
simInsts                                         6555                       # Number of instructions simulated (Count)
simOps                                          12992                       # Number of ops (including micro ops) simulated (Count)
hostInstRate                                    19869                       # Simulator instruction rate (inst/s) ((Count/Second))
hostOpRate                                      39377                       # Simulator op (including micro ops) rate (op/s) ((Count/Second))
board.cache_hierarchy.cc_l2cache.demandHits::cache_hierarchy.l1dcaches0.prefetcher            8                       # number of demand (read+write) hits (Count)
board.cache_hierarchy.cc_l2cache.demandHits::processor.cores0.core.inst            4                       # number of demand (read+write) hits (Count)
board.cache_hierarchy.cc_l2cache.demandHits::processor.cores0.core.data            6                       # number of demand (read+write) hits (Count)
board.cache_hierarchy.cc_l2cache.demandHits::total           18                       # number of demand (read+write) hits (Count)
board.cache_hierarchy.cc_l2cache.overallHits::cache_hierarchy.l1dcaches0.prefetcher            8                       # number of overall hits (Count)
board.cache_hierarchy.cc_l2cache.overallHits::processor.cores0.core.inst            4                       # number of overall hits (Count)
board.cache_hierarchy.cc_l2cache.overallHits::processor.cores0.core.data            6                       # number of overall hits (Count)
board.cache_hierarchy.cc_l2cache.overallHits::total           18                       # number of overall hits (Count)
board.cache_hierarchy.cc_l2cache.demandMisses::cache_hierarchy.l1dcaches0.prefetcher           39                       # number of demand (read+write) misses (Count)
board.cache_hierarchy.cc_l2cache.demandMisses::processor.cores0.core.inst          417                       # number of demand (read+write) misses (Count)
board.cache_hierarchy.cc_l2cache.demandMisses::processor.cores0.core.data          143                       # number of demand (read+write) misses (Count)
board.cache_hierarchy.cc_l2cache.demandMisses::total          599                       # number of demand (read+write) misses (Count)
board.cache_hierarchy.cc_l2cache.overallMisses::cache_hierarchy.l1dcaches0.prefetcher           39                       # number of overall misses (Count)
board.cache_hierarchy.cc_l2cache.overallMisses::processor.cores0.core.inst          417                       # number of overall misses (Count)
board.cache_hierarchy.cc_l2cache.overallMisses::processor.cores0.core.data          143                       # number of overall misses (Count)
board.cache_hierarchy.cc_l2cache.overallMisses::total          599                       # number of overall misses (Count)
board.cache_hierarchy.cc_l2cache.demandMissLatency::cache_hierarchy.l1dcaches0.prefetcher      3059930                       # number of demand (read+write) miss ticks (Tick)
board.cache_hierarchy.cc_l2cache.demandMissLatency::processor.cores0.core.inst     22866444                       # number of demand (read+write) miss ticks (Tick)
board.cache_hierarchy.cc_l2cache.demandMissLatency::processor.cores0.core.data      9351972                       # number of demand (read+write) miss ticks (Tick)
board.cache_hierarchy.cc_l2cache.demandMissLatency::total     35278346                       # number of demand (read+write) miss ticks (Tick)
board.cache_hierarchy.cc_l2cache.overallMissLatency::cache_hierarchy.l1dcaches0.prefetcher      3059930                       # number of overall miss ticks (Tick)
board.cache_hierarchy.cc_l2cache.overallMissLatency::processor.cores0.core.inst     22866444                       # number of overall miss ticks (Tick)
board.cache_hierarchy.cc_l2cache.overallMissLatency::processor.cores0.core.data      9351972                       # number of overall miss ticks (Tick)
board.cache_hierarchy.cc_l2cache.overallMissLatency::total     35278346                       # number of overall miss ticks (Tick)
board.cache_hierarchy.cc_l2cache.demandAccesses::cache_hierarchy.l1dcaches0.prefetcher           47                       # number of demand (read+write) accesses (Count)
board.cache_hierarchy.cc_l2cache.demandAccesses::processor.cores0.core.inst          421                       # number of demand (read+write) accesses (Count)
board.cache_hierarchy.cc_l2cache.demandAccesses::processor.cores0.core.data          149                       # number of demand (read+write) accesses (Count)
board.cache_hierarchy.cc_l2cache.demandAccesses::total          617                       # number of demand (read+write) accesses (Count)
board.cache_hierarchy.cc_l2cache.overallAccesses::cache_hierarchy.l1dcaches0.prefetcher           47                       # number of overall (read+write) accesses (Count)
board.cache_hierarchy.cc_l2cache.overallAccesses::processor.cores0.core.inst          421                       # number of overall (read+write) accesses (Count)
board.cache_hierarchy.cc_l2cache.overallAccesses::processor.cores0.core.data          149                       # number of overall (read+write) accesses (Count)
board.cache_hierarchy.cc_l2cache.overallAccesses::total          617                       # number of overall (read+write) accesses (Count)
board.cache_hierarchy.cc_l2cache.demandMissRate::cache_hierarchy.l1dcaches0.prefetcher     0.829787                       # miss rate for demand accesses (Ratio)
board.cache_hierarchy.cc_l2cache.demandMissRate::processor.cores0.core.inst     0.990499                       # miss rate for demand accesses (Ratio)
board.cache_hierarchy.cc_l2cache.demandMissRate::processor.cores0.core.data     0.959732                       # miss rate for demand accesses (Ratio)
board.cache_hierarchy.cc_l2cache.demandMissRate::total     0.970827                       # miss rate for demand accesses (Ratio)
board.cache_hierarchy.cc_l2cache.overallMissRate::cache_hierarchy.l1dcaches0.prefetcher     0.829787                       # miss rate for overall accesses (Ratio)
board.cache_hierarchy.cc_l2cache.overallMissRate::processor.cores0.core.inst     0.990499                       # miss rate for overall accesses (Ratio)
board.cache_hierarchy.cc_l2cache.overallMissRate::processor.cores0.core.data     0.959732                       # miss rate for overall accesses (Ratio)
board.cache_hierarchy.cc_l2cache.overallMissRate::total     0.970827                       # miss rate for overall accesses (Ratio)
board.cache_hierarchy.cc_l2cache.demandAvgMissLatency::cache_hierarchy.l1dcaches0.prefetcher 78459.743590                       # average overall miss latency in ticks ((Tick/Count))
board.cache_hierarchy.cc_l2cache.demandAvgMissLatency::processor.cores0.core.inst 54835.597122                       # average overall miss latency in ticks ((Tick/Count))
board.cache_hierarchy.cc_l2cache.demandAvgMissLatency::processor.cores0.core.data 65398.405594                       # average overall miss latency in ticks ((Tick/Count))
board.cache_hierarchy.cc_l2cache.demandAvgMissLatency::total 58895.402337                       # average overall miss latency in ticks ((Tick/Count))
board.cache_hierarchy.cc_l2cache.overallAvgMissLatency::cache_hierarchy.l1dcaches0.prefetcher 78459.743590                       # average overall miss latency ((Tick/Count))
board.cache_hierarchy.cc_l2cache.overallAvgMissLatency::processor.cores0.core.inst 54835.597122                       # average overall miss latency ((Tick/Count))
board.cache_hierarchy.cc_l2cache.overallAvgMissLatency::processor.cores0.core.data 65398.405594                       # average overall miss latency ((Tick/Count))
board.cache_hierarchy.cc_l2cache.overallAvgMissLatency::total 58895.402337                       # average overall miss latency ((Tick/Count))
board.cache_hierarchy.cc_l2cache.blockedCycles::no_mshrs            0                       # number of cycles access was blocked (Cycle)
board.cache_hierarchy.cc_l2cache.blockedCycles::no_targets            0                       # number of cycles access was blocked (Cycle)
board.cache_hierarchy.cc_l2cache.blockedCauses::no_mshrs            0                       # number of times access was blocked (Count)
board.cache_hierarchy.cc_l2cache.blockedCauses::no_targets            0                       # number of times access was blocked (Count)
board.cache_hierarchy.cc_l2cache.avgBlocked::no_mshrs          nan                       # average number of cycles each access was blocked ((Cycle/Count))
board.cache_hierarchy.cc_l2cache.avgBlocked::no_targets          nan                       # average number of cycles each access was blocked ((Cycle/Count))
board.cache_hierarchy.cc_l2cache.demandMshrHits::cache_hierarchy.l1dcaches0.prefetcher            7                       # number of demand (read+write) MSHR hits (Count)
board.cache_hierarchy.cc_l2cache.demandMshrHits::total            7                       # number of demand (read+write) MSHR hits (Count)
board.cache_hierarchy.cc_l2cache.overallMshrHits::cache_hierarchy.l1dcaches0.prefetcher            7                       # number of overall MSHR hits (Count)
board.cache_hierarchy.cc_l2cache.overallMshrHits::total            7                       # number of overall MSHR hits (Count)
board.cache_hierarchy.cc_l2cache.demandMshrMisses::cache_hierarchy.l1dcaches0.prefetcher           32                       # number of demand (read+write) MSHR misses (Count)
board.cache_hierarchy.cc_l2cache.demandMshrMisses::processor.cores0.core.inst          417                       # number of demand (read+write) MSHR misses (Count)
board.cache_hierarchy.cc_l2cache.demandMshrMisses::processor.cores0.core.data          143                       # number of demand (read+write) MSHR misses (Count)
board.cache_hierarchy.cc_l2cache.demandMshrMisses::total          592                       # number of demand (read+write) MSHR misses (Count)
board.cache_hierarchy.cc_l2cache.overallMshrMisses::cache_hierarchy.cc_l2cache.prefetcher           30                       # number of overall MSHR misses (Count)
board.cache_hierarchy.cc_l2cache.overallMshrMisses::cache_hierarchy.l1dcaches0.prefetcher           32                       # number of overall MSHR misses (Count)
board.cache_hierarchy.cc_l2cache.overallMshrMisses::processor.cores0.core.inst          417                       # number of overall MSHR misses (Count)
board.cache_hierarchy.cc_l2cache.overallMshrMisses::processor.cores0.core.data          143                       # number of overall MSHR misses (Count)
board.cache_hierarchy.cc_l2cache.overallMshrMisses::total          622                       # number of overall MSHR misses (Count)
board.cache_hierarchy.cc_l2cache.demandMshrMissLatency::cache_hierarchy.l1dcaches0.prefetcher      2719940                       # number of demand (read+write) MSHR miss ticks (Tick)
board.cache_hierarchy.cc_l2cache.demandMshrMissLatency::processor.cores0.core.inst     22727916                       # number of demand (read+write) MSHR miss ticks (Tick)
board.cache_hierarchy.cc_l2cache.demandMshrMissLatency::processor.cores0.core.data      9304353                       # number of demand (read+write) MSHR miss ticks (Tick)
board.cache_hierarchy.cc_l2cache.demandMshrMissLatency::total     34752209                       # number of demand (read+write) MSHR miss ticks (Tick)
board.cache_hierarchy.cc_l2cache.overallMshrMissLatency::cache_hierarchy.cc_l2cache.prefetcher      1759546                       # number of overall MSHR miss ticks (Tick)
board.cache_hierarchy.cc_l2cache.overallMshrMissLatency::cache_hierarchy.l1dcaches0.prefetcher      2719940                       # number of overall MSHR miss ticks (Tick)
board.cache_hierarchy.cc_l2cache.overallMshrMissLatency::processor.cores0.core.inst     22727916                       # number of overall MSHR miss ticks (Tick)
board.cache_hierarchy.cc_l2cache.overallMshrMissLatency::processor.cores0.core.data      9304353                       # number of overall MSHR miss ticks (Tick)
board.cache_hierarchy.cc_l2cache.overallMshrMissLatency::total     36511755                       # number of overall MSHR miss ticks (Tick)
board.cache_hierarchy.cc_l2cache.demandMshrMissRate::cache_hierarchy.l1dcaches0.prefetcher     0.680851                       # mshr miss ratio for demand accesses (Ratio)
board.cache_hierarchy.cc_l2cache.demandMshrMissRate::processor.cores0.core.inst     0.990499                       # mshr miss ratio for demand accesses (Ratio)
board.cache_hierarchy.cc_l2cache.demandMshrMissRate::processor.cores0.core.data     0.959732                       # mshr miss ratio for demand accesses (Ratio)
board.cache_hierarchy.cc_l2cache.demandMshrMissRate::total     0.959481                       # mshr miss ratio for demand accesses (Ratio)
board.cache_hierarchy.cc_l2cache.overallMshrMissRate::cache_hierarchy.cc_l2cache.prefetcher          inf                       # mshr miss ratio for overall accesses (Ratio)
board.cache_hierarchy.cc_l2cache.overallMshrMissRate::cache_hierarchy.l1dcaches0.prefetcher     0.680851                       # mshr miss ratio for overall accesses (Ratio)
board.cache_hierarchy.cc_l2cache.overallMshrMissRate::processor.cores0.core.inst     0.990499                       # mshr miss ratio for overall accesses (Ratio)
board.cache_hierarchy.cc_l2cache.overallMshrMissRate::processor.cores0.core.data     0.959732                       # mshr miss ratio for overall accesses (Ratio)
board.cache_hierarchy.cc_l2cache.overallMshrMissRate::total     1.008104                       # mshr miss ratio for overall accesses (Ratio)
board.cache_hierarchy.cc_l2cache.demandAvgMshrMissLatency::cache_hierarchy.l1dcaches0.prefetcher 84998.125000                       # average overall mshr miss latency ((Tick/Count))
board.cache_hierarchy.cc_l2cache.demandAvgMshrMissLatency::processor.cores0.core.inst 54503.395683                       # average overall mshr miss latency ((Tick/Count))
board.cache_hierarchy.cc_l2cache.demandAvgMshrMissLatency::processor.cores0.core.data 65065.405594                       # average overall mshr miss latency ((Tick/Count))
board.cache_hierarchy.cc_l2cache.demandAvgMshrMissLatency::total 58703.055743                       # average overall mshr miss latency ((Tick/Count))
board.cache_hierarchy.cc_l2cache.overallAvgMshrMissLatency::cache_hierarchy.cc_l2cache.prefetcher 58651.533333                       # average overall mshr miss latency ((Tick/Count))
board.cache_hierarchy.cc_l2cache.overallAvgMshrMissLatency::cache_hierarchy.l1dcaches0.prefetcher 84998.125000                       # average overall mshr miss latency ((Tick/Count))
board.cache_hierarchy.cc_l2cache.overallAvgMshrMissLatency::processor.cores0.core.inst 54503.395683                       # average overall mshr miss latency ((Tick/Count))
board.cache_hierarchy.cc_l2cache.overallAvgMshrMissLatency::processor.cores0.core.data 65065.405594                       # average overall mshr miss latency ((Tick/Count))
board.cache_hierarchy.cc_l2cache.overallAvgMshrMissLatency::total 58700.570740                       # average overall mshr miss latency ((Tick/Count))
board.cache_hierarchy.cc_l2cache.replacements            0                       # number of replacements (Count)
board.cache_hierarchy.cc_l2cache.HardPFReq.mshrMisses::cache_hierarchy.cc_l2cache.prefetcher           30                       # number of HardPFReq MSHR misses (Count)
board.cache_hierarchy.cc_l2cache.HardPFReq.mshrMisses::total           30                       # number of HardPFReq MSHR misses (Count)
board.cache_hierarchy.cc_l2cache.HardPFReq.mshrMissLatency::cache_hierarchy.cc_l2cache.prefetcher      1759546                       # number of HardPFReq MSHR miss ticks (Tick)
board.cache_hierarchy.cc_l2cache.HardPFReq.mshrMissLatency::total      1759546                       # number of HardPFReq MSHR miss ticks (Tick)
board.cache_hierarchy.cc_l2cache.HardPFReq.mshrMissRate::cache_hierarchy.cc_l2cache.prefetcher          inf                       # mshr miss rate for HardPFReq accesses (Ratio)
board.cache_hierarchy.cc_l2cache.HardPFReq.mshrMissRate::total          inf                       # mshr miss rate for HardPFReq accesses (Ratio)
board.cache_hierarchy.cc_l2cache.HardPFReq.avgMshrMissLatency::cache_hierarchy.cc_l2cache.prefetcher 58651.533333                       # average HardPFReq mshr miss latency ((Tick/Count))
board.cache_hierarchy.cc_l2cache.HardPFReq.avgMshrMissLatency::total 58651.533333                       # average HardPFReq mshr miss latency ((Tick/Count))
board.cache_hierarchy.cc_l2cache.ReadExReq.hits::processor.cores0.core.data            5                       # number of ReadExReq hits (Count)
board.cache_hierarchy.cc_l2cache.ReadExReq.hits::total            5                       # number of ReadExReq hits (Count)
board.cache_hierarchy.cc_l2cache.ReadExReq.misses::processor.cores0.core.data           57                       # number of ReadExReq misses (Count)
board.cache_hierarchy.cc_l2cache.ReadExReq.misses::total           57                       # number of ReadExReq misses (Count)
board.cache_hierarchy.cc_l2cache.ReadExReq.missLatency::processor.cores0.core.data      3566763                       # number of ReadExReq miss ticks (Tick)
board.cache_hierarchy.cc_l2cache.ReadExReq.missLatency::total      3566763                       # number of ReadExReq miss ticks (Tick)
board.cache_hierarchy.cc_l2cache.ReadExReq.accesses::processor.cores0.core.data           62                       # number of ReadExReq accesses(hits+misses) (Count)
board.cache_hierarchy.cc_l2cache.ReadExReq.accesses::total           62                       # number of ReadExReq accesses(hits+misses) (Count)
board.cache_hierarchy.cc_l2cache.ReadExReq.missRate::processor.cores0.core.data     0.919355                       # miss rate for ReadExReq accesses (Ratio)
board.cache_hierarchy.cc_l2cache.ReadExReq.missRate::total     0.919355                       # miss rate for ReadExReq accesses (Ratio)
board.cache_hierarchy.cc_l2cache.ReadExReq.avgMissLatency::processor.cores0.core.data 62574.789474                       # average ReadExReq miss latency ((Tick/Count))
board.cache_hierarchy.cc_l2cache.ReadExReq.avgMissLatency::total 62574.789474                       # average ReadExReq miss latency ((Tick/Count))
board.cache_hierarchy.cc_l2cache.ReadExReq.mshrMisses::processor.cores0.core.data           57                       # number of ReadExReq MSHR misses (Count)
board.cache_hierarchy.cc_l2cache.ReadExReq.mshrMisses::total           57                       # number of ReadExReq MSHR misses (Count)
board.cache_hierarchy.cc_l2cache.ReadExReq.mshrMissLatency::processor.cores0.core.data      3547782                       # number of ReadExReq MSHR miss ticks (Tick)
board.cache_hierarchy.cc_l2cache.ReadExReq.mshrMissLatency::total      3547782                       # number of ReadExReq MSHR miss ticks (Tick)
board.cache_hierarchy.cc_l2cache.ReadExReq.mshrMissRate::processor.cores0.core.data     0.919355                       # mshr miss rate for ReadExReq accesses (Ratio)
board.cache_hierarchy.cc_l2cache.ReadExReq.mshrMissRate::total     0.919355                       # mshr miss rate for ReadExReq accesses (Ratio)
board.cache_hierarchy.cc_l2cache.ReadExReq.avgMshrMissLatency::processor.cores0.core.data 62241.789474                       # average ReadExReq mshr miss latency ((Tick/Count))
board.cache_hierarchy.cc_l2cache.ReadExReq.avgMshrMissLatency::total 62241.789474                       # average ReadExReq mshr miss latency ((Tick/Count))
board.cache_hierarchy.cc_l2cache.ReadSharedReq.hits::cache_hierarchy.l1dcaches0.prefetcher            8                       # number of ReadSharedReq hits (Count)
board.cache_hierarchy.cc_l2cache.ReadSharedReq.hits::processor.cores0.core.inst            4                       # number of ReadSharedReq hits (Count)
board.cache_hierarchy.cc_l2cache.ReadSharedReq.hits::processor.cores0.core.data            1                       # number of ReadSharedReq hits (Count)
board.cache_hierarchy.cc_l2cache.ReadSharedReq.hits::total           13                       # number of ReadSharedReq hits (Count)
board.cache_hierarchy.cc_l2cache.ReadSharedReq.misses::cache_hierarchy.l1dcaches0.prefetcher           39                       # number of ReadSharedReq misses (Count)
board.cache_hierarchy.cc_l2cache.ReadSharedReq.misses::processor.cores0.core.inst          417                       # number of ReadSharedReq misses (Count)
board.cache_hierarchy.cc_l2cache.ReadSharedReq.misses::processor.cores0.core.data           86                       # number of ReadSharedReq misses (Count)
board.cache_hierarchy.cc_l2cache.ReadSharedReq.misses::total          542                       # number of ReadSharedReq misses (Count)
board.cache_hierarchy.cc_l2cache.ReadSharedReq.missLatency::cache_hierarchy.l1dcaches0.prefetcher      3059930                       # number of ReadSharedReq miss ticks (Tick)
board.cache_hierarchy.cc_l2cache.ReadSharedReq.missLatency::processor.cores0.core.inst     22866444                       # number of ReadSharedReq miss ticks (Tick)
board.cache_hierarchy.cc_l2cache.ReadSharedReq.missLatency::processor.cores0.core.data      5785209                       # number of ReadSharedReq miss ticks (Tick)
board.cache_hierarchy.cc_l2cache.ReadSharedReq.missLatency::total     31711583                       # number of ReadSharedReq miss ticks (Tick)
board.cache_hierarchy.cc_l2cache.ReadSharedReq.accesses::cache_hierarchy.l1dcaches0.prefetcher           47                       # number of ReadSharedReq accesses(hits+misses) (Count)
board.cache_hierarchy.cc_l2cache.ReadSharedReq.accesses::processor.cores0.core.inst          421                       # number of ReadSharedReq accesses(hits+misses) (Count)
board.cache_hierarchy.cc_l2cache.ReadSharedReq.accesses::processor.cores0.core.data           87                       # number of ReadSharedReq accesses(hits+misses) (Count)
board.cache_hierarchy.cc_l2cache.ReadSharedReq.accesses::total          555                       # number of ReadSharedReq accesses(hits+misses) (Count)
board.cache_hierarchy.cc_l2cache.ReadSharedReq.missRate::cache_hierarchy.l1dcaches0.prefetcher     0.829787                       # miss rate for ReadSharedReq accesses (Ratio)
board.cache_hierarchy.cc_l2cache.ReadSharedReq.missRate::processor.cores0.core.inst     0.990499                       # miss rate for ReadSharedReq accesses (Ratio)
board.cache_hierarchy.cc_l2cache.ReadSharedReq.missRate::processor.cores0.core.data     0.988506                       # miss rate for ReadSharedReq accesses (Ratio)
board.cache_hierarchy.cc_l2cache.ReadSharedReq.missRate::total     0.976577                       # miss rate for ReadSharedReq accesses (Ratio)
board.cache_hierarchy.cc_l2cache.ReadSharedReq.avgMissLatency::cache_hierarchy.l1dcaches0.prefetcher 78459.743590                       # average ReadSharedReq miss latency ((Tick/Count))
board.cache_hierarchy.cc_l2cache.ReadSharedReq.avgMissLatency::processor.cores0.core.inst 54835.597122                       # average ReadSharedReq miss latency ((Tick/Count))
board.cache_hierarchy.cc_l2cache.ReadSharedReq.avgMissLatency::processor.cores0.core.data 67269.872093                       # average ReadSharedReq miss latency ((Tick/Count))
board.cache_hierarchy.cc_l2cache.ReadSharedReq.avgMissLatency::total 58508.455720                       # average ReadSharedReq miss latency ((Tick/Count))
board.cache_hierarchy.cc_l2cache.ReadSharedReq.mshrHits::cache_hierarchy.l1dcaches0.prefetcher            7                       # number of ReadSharedReq MSHR hits (Count)
board.cache_hierarchy.cc_l2cache.ReadSharedReq.mshrHits::total            7                       # number of ReadSharedReq MSHR hits (Count)
board.cache_hierarchy.cc_l2cache.ReadSharedReq.mshrMisses::cache_hierarchy.l1dcaches0.prefetcher           32                       # number of ReadSharedReq MSHR misses (Count)
board.cache_hierarchy.cc_l2cache.ReadSharedReq.mshrMisses::processor.cores0.core.inst          417                       # number of ReadSharedReq MSHR misses (Count)
board.cache_hierarchy.cc_l2cache.ReadSharedReq.mshrMisses::processor.cores0.core.data           86                       # number of ReadSharedReq MSHR misses (Count)
board.cache_hierarchy.cc_l2cache.ReadSharedReq.mshrMisses::total          535                       # number of ReadSharedReq MSHR misses (Count)
board.cache_hierarchy.cc_l2cache.ReadSharedReq.mshrMissLatency::cache_hierarchy.l1dcaches0.prefetcher      2719940                       # number of ReadSharedReq MSHR miss ticks (Tick)
board.cache_hierarchy.cc_l2cache.ReadSharedReq.mshrMissLatency::processor.cores0.core.inst     22727916                       # number of ReadSharedReq MSHR miss ticks (Tick)
board.cache_hierarchy.cc_l2cache.ReadSharedReq.mshrMissLatency::processor.cores0.core.data      5756571                       # number of ReadSharedReq MSHR miss ticks (Tick)
board.cache_hierarchy.cc_l2cache.ReadSharedReq.mshrMissLatency::total     31204427                       # number of ReadSharedReq MSHR miss ticks (Tick)
board.cache_hierarchy.cc_l2cache.ReadSharedReq.mshrMissRate::cache_hierarchy.l1dcaches0.prefetcher     0.680851                       # mshr miss rate for ReadSharedReq accesses (Ratio)
board.cache_hierarchy.cc_l2cache.ReadSharedReq.mshrMissRate::processor.cores0.core.inst     0.990499                       # mshr miss rate for ReadSharedReq accesses (Ratio)
board.cache_hierarchy.cc_l2cache.ReadSharedReq.mshrMissRate::processor.cores0.core.data     0.988506                       # mshr miss rate for ReadSharedReq accesses (Ratio)
board.cache_hierarchy.cc_l2cache.ReadSharedReq.mshrMissRate::total     0.963964                       # mshr miss rate for ReadSharedReq accesses (Ratio)
board.cache_hierarchy.cc_l2cache.ReadSharedReq.avgMshrMissLatency::cache_hierarchy.l1dcaches0.prefetcher 84998.125000                       # average ReadSharedReq mshr miss latency ((Tick/Count))
board.cache_hierarchy.cc_l2cache.ReadSharedReq.avgMshrMissLatency::processor.cores0.core.inst 54503.395683                       # average ReadSharedReq mshr miss latency ((Tick/Count))
board.cache_hierarchy.cc_l2cache.ReadSharedReq.avgMshrMissLatency::processor.cores0.core.data 66936.872093                       # average ReadSharedReq mshr miss latency ((Tick/Count))
board.cache_hierarchy.cc_l2cache.ReadSharedReq.avgMshrMissLatency::total 58326.031776                       # average ReadSharedReq mshr miss latency ((Tick/Count))
board.cache_hierarchy.cc_l2cache.power_state.pwrStateResidencyTicks::UNDEFINED     21074904                       # Cumulative time (in ticks) in various power states (Tick)
board.cache_hierarchy.cc_l2cache.prefetcher.demandMshrMisses          592                       # demands not covered by prefetchs (Count)
board.cache_hierarchy.cc_l2cache.prefetcher.pfIssued           35                       # number of hwpf issued (Count)
board.cache_hierarchy.cc_l2cache.prefetcher.pfUseful           15                       # number of useful prefetch (Count)
board.cache_hierarchy.cc_l2cache.prefetcher.pfUsefulButMiss            0                       # number of hit on prefetch but cache block is not in an usable state (Count)
board.cache_hierarchy.cc_l2cache.prefetcher.accuracy     0.428571                       # accuracy of the prefetcher (Count)
board.cache_hierarchy.cc_l2cache.prefetcher.coverage     0.024712                       # coverage brought by this prefetcher (Count)
board.cache_hierarchy.cc_l2cache.prefetcher.pfHitInCache            3                       # number of prefetches hitting in cache (Count)
board.cache_hierarchy.cc_l2cache.prefetcher.pfHitInMSHR            2                       # number of prefetches hitting in a MSHR (Count)
board.cache_hierarchy.cc_l2cache.prefetcher.pfHitInWB            0                       # number of prefetches hit in the Write Buffer (Count)
board.cache_hierarchy.cc_l2cache.prefetcher.pfLate            5                       # number of late prefetches (hitting in cache, MSHR or WB) (Count)
board.cache_hierarchy.cc_l2cache.prefetcher.pfIdentified           70                       # number of prefetch candidates identified (Count)
board.cache_hierarchy.cc_l2cache.prefetcher.pfBufferHit           20                       # number of redundant prefetches already in prefetch queue (Count)
board.cache_hierarchy.cc_l2cache.prefetcher.pfInCache            0                       # number of redundant prefetches already in cache/mshr dropped (Count)
board.cache_hierarchy.cc_l2cache.prefetcher.pfRemovedDemand           11                       # number of prefetches dropped due to a demand for the same address (Count)
board.cache_hierarchy.cc_l2cache.prefetcher.pfRemovedFull            0                       # number of prefetches dropped due to prefetch queue size (Count)
board.cache_hierarchy.cc_l2cache.prefetcher.pfSpanPage           10                       # number of prefetches that crossed the page (Count)
board.cache_hierarchy.cc_l2cache.prefetcher.pfUsefulSpanPage            0                       # number of prefetches that is useful and crossed the page (Count)
board.cache_hierarchy.cc_l2cache.prefetcher.power_state.pwrStateResidencyTicks::UNDEFINED     21074904                       # Cumulative time (in ticks) in various power states (Tick)
board.cache_hierarchy.cc_l2cache.tags.tagsInUse   334.696607                       # Average ticks per tags in use ((Tick/Count))
board.cache_hierarchy.cc_l2cache.tags.totalRefs          671                       # Total number of references to valid blocks. (Count)
board.cache_hierarchy.cc_l2cache.tags.sampledRefs          621                       # Sample count of references to valid blocks. (Count)
board.cache_hierarchy.cc_l2cache.tags.avgRefs     1.080515                       # Average number of references to valid blocks. ((Count/Count))
board.cache_hierarchy.cc_l2cache.tags.warmupTick        69597                       # The tick when the warmup percentage was hit. (Tick)
board.cache_hierarchy.cc_l2cache.tags.occupancies::cache_hierarchy.cc_l2cache.prefetcher    19.999400                       # Average occupied blocks per tick, per requestor ((Count/Tick))
board.cache_hierarchy.cc_l2cache.tags.occupancies::cache_hierarchy.l1dcaches0.prefetcher    21.076571                       # Average occupied blocks per tick, per requestor ((Count/Tick))
board.cache_hierarchy.cc_l2cache.tags.occupancies::processor.cores0.core.inst   207.719230                       # Average occupied blocks per tick, per requestor ((Count/Tick))
board.cache_hierarchy.cc_l2cache.tags.occupancies::processor.cores0.core.data    85.901406                       # Average occupied blocks per tick, per requestor ((Count/Tick))
board.cache_hierarchy.cc_l2cache.tags.avgOccs::cache_hierarchy.cc_l2cache.prefetcher     0.004883                       # Average percentage of cache occupancy ((Ratio/Tick))
board.cache_hierarchy.cc_l2cache.tags.avgOccs::cache_hierarchy.l1dcaches0.prefetcher     0.005146                       # Average percentage of cache occupancy ((Ratio/Tick))
board.cache_hierarchy.cc_l2cache.tags.avgOccs::processor.cores0.core.inst     0.050713                       # Average percentage of cache occupancy ((Ratio/Tick))
board.cache_hierarchy.cc_l2cache.tags.avgOccs::processor.cores0.core.data     0.020972                       # Average percentage of cache occupancy ((Ratio/Tick))
board.cache_hierarchy.cc_l2cache.tags.avgOccs::total     0.081713                       # Average percentage of cache occupancy ((Ratio/Tick))
board.cache_hierarchy.cc_l2cache.tags.occupanciesTaskId::1022           62                       # Occupied blocks per task id (Count)
board.cache_hierarchy.cc_l2cache.tags.occupanciesTaskId::1024          559                       # Occupied blocks per task id (Count)
board.cache_hierarchy.cc_l2cache.tags.ageTaskId_1022::1           62                       # Occupied blocks per task id, per block age (Count)
board.cache_hierarchy.cc_l2cache.tags.ageTaskId_1024::0          241                       # Occupied blocks per task id, per block age (Count)
board.cache_hierarchy.cc_l2cache.tags.ageTaskId_1024::1          318                       # Occupied blocks per task id, per block age (Count)
board.cache_hierarchy.cc_l2cache.tags.ratioOccsTaskId::1022     0.015137                       # Ratio of occupied blocks and all blocks, per task id (Ratio)
board.cache_hierarchy.cc_l2cache.tags.ratioOccsTaskId::1024     0.136475                       # Ratio of occupied blocks and all blocks, per task id (Ratio)
board.cache_hierarchy.cc_l2cache.tags.tagAccesses        11005                       # Number of tag accesses (Count)
board.cache_hierarchy.cc_l2cache.tags.dataAccesses        11005                       # Number of data accesses (Count)
board.cache_hierarchy.cc_l2cache.tags.power_state.pwrStateResidencyTicks::UNDEFINED     21074904                       # Cumulative time (in ticks) in various power states (Tick)
board.cache_hierarchy.dptw_caches0.blockedCycles::no_mshrs            0                       # number of cycles access was blocked (Cycle)
board.cache_hierarchy.dptw_caches0.blockedCycles::no_targets            0                       # number of cycles access was blocked (Cycle)
board.cache_hierarchy.dptw_caches0.blockedCauses::no_mshrs            0                       # number of times access was blocked (Count)
board.cache_hierarchy.dptw_caches0.blockedCauses::no_targets            0                       # number of times access was blocked (Count)
board.cache_hierarchy.dptw_caches0.avgBlocked::no_mshrs          nan                       # average number of cycles each access was blocked ((Cycle/Count))
board.cache_hierarchy.dptw_caches0.avgBlocked::no_targets          nan                       # average number of cycles each access was blocked ((Cycle/Count))
board.cache_hierarchy.dptw_caches0.replacements            0                       # number of replacements (Count)
board.cache_hierarchy.dptw_caches0.power_state.pwrStateResidencyTicks::UNDEFINED     21074904                       # Cumulative time (in ticks) in various power states (Tick)
board.cache_hierarchy.dptw_caches0.tags.tagsInUse            0                       # Average ticks per tags in use ((Tick/Count))
board.cache_hierarchy.dptw_caches0.tags.totalRefs            0                       # Total number of references to valid blocks. (Count)
board.cache_hierarchy.dptw_caches0.tags.sampledRefs            0                       # Sample count of references to valid blocks. (Count)
board.cache_hierarchy.dptw_caches0.tags.avgRefs          nan                       # Average number of references to valid blocks. ((Count/Count))
board.cache_hierarchy.dptw_caches0.tags.warmupTick            0                       # The tick when the warmup percentage was hit. (Tick)
board.cache_hierarchy.dptw_caches0.tags.tagAccesses            0                       # Number of tag accesses (Count)
board.cache_hierarchy.dptw_caches0.tags.dataAccesses            0                       # Number of data accesses (Count)
board.cache_hierarchy.dptw_caches0.tags.power_state.pwrStateResidencyTicks::UNDEFINED     21074904                       # Cumulative time (in ticks) in various power states (Tick)
board.cache_hierarchy.dptw_caches1.blockedCycles::no_mshrs            0                       # number of cycles access was blocked (Cycle)
board.cache_hierarchy.dptw_caches1.blockedCycles::no_targets            0                       # number of cycles access was blocked (Cycle)
board.cache_hierarchy.dptw_caches1.blockedCauses::no_mshrs            0                       # number of times access was blocked (Count)
board.cache_hierarchy.dptw_caches1.blockedCauses::no_targets            0                       # number of times access was blocked (Count)
board.cache_hierarchy.dptw_caches1.avgBlocked::no_mshrs          nan                       # average number of cycles each access was blocked ((Cycle/Count))
board.cache_hierarchy.dptw_caches1.avgBlocked::no_targets          nan                       # average number of cycles each access was blocked ((Cycle/Count))
board.cache_hierarchy.dptw_caches1.replacements            0                       # number of replacements (Count)
board.cache_hierarchy.dptw_caches1.power_state.pwrStateResidencyTicks::UNDEFINED     21074904                       # Cumulative time (in ticks) in various power states (Tick)
board.cache_hierarchy.dptw_caches1.tags.tagsInUse            0                       # Average ticks per tags in use ((Tick/Count))
board.cache_hierarchy.dptw_caches1.tags.totalRefs            0                       # Total number of references to valid blocks. (Count)
board.cache_hierarchy.dptw_caches1.tags.sampledRefs            0                       # Sample count of references to valid blocks. (Count)
board.cache_hierarchy.dptw_caches1.tags.avgRefs          nan                       # Average number of references to valid blocks. ((Count/Count))
board.cache_hierarchy.dptw_caches1.tags.warmupTick            0                       # The tick when the warmup percentage was hit. (Tick)
board.cache_hierarchy.dptw_caches1.tags.tagAccesses            0                       # Number of tag accesses (Count)
board.cache_hierarchy.dptw_caches1.tags.dataAccesses            0                       # Number of data accesses (Count)
board.cache_hierarchy.dptw_caches1.tags.power_state.pwrStateResidencyTicks::UNDEFINED     21074904                       # Cumulative time (in ticks) in various power states (Tick)
board.cache_hierarchy.dptw_caches2.blockedCycles::no_mshrs            0                       # number of cycles access was blocked (Cycle)
board.cache_hierarchy.dptw_caches2.blockedCycles::no_targets            0                       # number of cycles access was blocked (Cycle)
board.cache_hierarchy.dptw_caches2.blockedCauses::no_mshrs            0                       # number of times access was blocked (Count)
board.cache_hierarchy.dptw_caches2.blockedCauses::no_targets            0                       # number of times access was blocked (Count)
board.cache_hierarchy.dptw_caches2.avgBlocked::no_mshrs          nan                       # average number of cycles each access was blocked ((Cycle/Count))
board.cache_hierarchy.dptw_caches2.avgBlocked::no_targets          nan                       # average number of cycles each access was blocked ((Cycle/Count))
board.cache_hierarchy.dptw_caches2.replacements            0                       # number of replacements (Count)
board.cache_hierarchy.dptw_caches2.power_state.pwrStateResidencyTicks::UNDEFINED     21074904                       # Cumulative time (in ticks) in various power states (Tick)
board.cache_hierarchy.dptw_caches2.tags.tagsInUse            0                       # Average ticks per tags in use ((Tick/Count))
board.cache_hierarchy.dptw_caches2.tags.totalRefs            0                       # Total number of references to valid blocks. (Count)
board.cache_hierarchy.dptw_caches2.tags.sampledRefs            0                       # Sample count of references to valid blocks. (Count)
board.cache_hierarchy.dptw_caches2.tags.avgRefs          nan                       # Average number of references to valid blocks. ((Count/Count))
board.cache_hierarchy.dptw_caches2.tags.warmupTick            0                       # The tick when the warmup percentage was hit. (Tick)
board.cache_hierarchy.dptw_caches2.tags.tagAccesses            0                       # Number of tag accesses (Count)
board.cache_hierarchy.dptw_caches2.tags.dataAccesses            0                       # Number of data accesses (Count)
board.cache_hierarchy.dptw_caches2.tags.power_state.pwrStateResidencyTicks::UNDEFINED     21074904                       # Cumulative time (in ticks) in various power states (Tick)
board.cache_hierarchy.dptw_caches3.blockedCycles::no_mshrs            0                       # number of cycles access was blocked (Cycle)
board.cache_hierarchy.dptw_caches3.blockedCycles::no_targets            0                       # number of cycles access was blocked (Cycle)
board.cache_hierarchy.dptw_caches3.blockedCauses::no_mshrs            0                       # number of times access was blocked (Count)
board.cache_hierarchy.dptw_caches3.blockedCauses::no_targets            0                       # number of times access was blocked (Count)
board.cache_hierarchy.dptw_caches3.avgBlocked::no_mshrs          nan                       # average number of cycles each access was blocked ((Cycle/Count))
board.cache_hierarchy.dptw_caches3.avgBlocked::no_targets          nan                       # average number of cycles each access was blocked ((Cycle/Count))
board.cache_hierarchy.dptw_caches3.replacements            0                       # number of replacements (Count)
board.cache_hierarchy.dptw_caches3.power_state.pwrStateResidencyTicks::UNDEFINED     21074904                       # Cumulative time (in ticks) in various power states (Tick)
board.cache_hierarchy.dptw_caches3.tags.tagsInUse            0                       # Average ticks per tags in use ((Tick/Count))
board.cache_hierarchy.dptw_caches3.tags.totalRefs            0                       # Total number of references to valid blocks. (Count)
board.cache_hierarchy.dptw_caches3.tags.sampledRefs            0                       # Sample count of references to valid blocks. (Count)
board.cache_hierarchy.dptw_caches3.tags.avgRefs          nan                       # Average number of references to valid blocks. ((Count/Count))
board.cache_hierarchy.dptw_caches3.tags.warmupTick            0                       # The tick when the warmup percentage was hit. (Tick)
board.cache_hierarchy.dptw_caches3.tags.tagAccesses            0                       # Number of tag accesses (Count)
board.cache_hierarchy.dptw_caches3.tags.dataAccesses            0                       # Number of data accesses (Count)
board.cache_hierarchy.dptw_caches3.tags.power_state.pwrStateResidencyTicks::UNDEFINED     21074904                       # Cumulative time (in ticks) in various power states (Tick)
board.cache_hierarchy.dptw_caches4.blockedCycles::no_mshrs            0                       # number of cycles access was blocked (Cycle)
board.cache_hierarchy.dptw_caches4.blockedCycles::no_targets            0                       # number of cycles access was blocked (Cycle)
board.cache_hierarchy.dptw_caches4.blockedCauses::no_mshrs            0                       # number of times access was blocked (Count)
board.cache_hierarchy.dptw_caches4.blockedCauses::no_targets            0                       # number of times access was blocked (Count)
board.cache_hierarchy.dptw_caches4.avgBlocked::no_mshrs          nan                       # average number of cycles each access was blocked ((Cycle/Count))
board.cache_hierarchy.dptw_caches4.avgBlocked::no_targets          nan                       # average number of cycles each access was blocked ((Cycle/Count))
board.cache_hierarchy.dptw_caches4.replacements            0                       # number of replacements (Count)
board.cache_hierarchy.dptw_caches4.power_state.pwrStateResidencyTicks::UNDEFINED     21074904                       # Cumulative time (in ticks) in various power states (Tick)
board.cache_hierarchy.dptw_caches4.tags.tagsInUse            0                       # Average ticks per tags in use ((Tick/Count))
board.cache_hierarchy.dptw_caches4.tags.totalRefs            0                       # Total number of references to valid blocks. (Count)
board.cache_hierarchy.dptw_caches4.tags.sampledRefs            0                       # Sample count of references to valid blocks. (Count)
board.cache_hierarchy.dptw_caches4.tags.avgRefs          nan                       # Average number of references to valid blocks. ((Count/Count))
board.cache_hierarchy.dptw_caches4.tags.warmupTick            0                       # The tick when the warmup percentage was hit. (Tick)
board.cache_hierarchy.dptw_caches4.tags.tagAccesses            0                       # Number of tag accesses (Count)
board.cache_hierarchy.dptw_caches4.tags.dataAccesses            0                       # Number of data accesses (Count)
board.cache_hierarchy.dptw_caches4.tags.power_state.pwrStateResidencyTicks::UNDEFINED     21074904                       # Cumulative time (in ticks) in various power states (Tick)
board.cache_hierarchy.dptw_caches5.blockedCycles::no_mshrs            0                       # number of cycles access was blocked (Cycle)
board.cache_hierarchy.dptw_caches5.blockedCycles::no_targets            0                       # number of cycles access was blocked (Cycle)
board.cache_hierarchy.dptw_caches5.blockedCauses::no_mshrs            0                       # number of times access was blocked (Count)
board.cache_hierarchy.dptw_caches5.blockedCauses::no_targets            0                       # number of times access was blocked (Count)
board.cache_hierarchy.dptw_caches5.avgBlocked::no_mshrs          nan                       # average number of cycles each access was blocked ((Cycle/Count))
board.cache_hierarchy.dptw_caches5.avgBlocked::no_targets          nan                       # average number of cycles each access was blocked ((Cycle/Count))
board.cache_hierarchy.dptw_caches5.replacements            0                       # number of replacements (Count)
board.cache_hierarchy.dptw_caches5.power_state.pwrStateResidencyTicks::UNDEFINED     21074904                       # Cumulative time (in ticks) in various power states (Tick)
board.cache_hierarchy.dptw_caches5.tags.tagsInUse            0                       # Average ticks per tags in use ((Tick/Count))
board.cache_hierarchy.dptw_caches5.tags.totalRefs            0                       # Total number of references to valid blocks. (Count)
board.cache_hierarchy.dptw_caches5.tags.sampledRefs            0                       # Sample count of references to valid blocks. (Count)
board.cache_hierarchy.dptw_caches5.tags.avgRefs          nan                       # Average number of references to valid blocks. ((Count/Count))
board.cache_hierarchy.dptw_caches5.tags.warmupTick            0                       # The tick when the warmup percentage was hit. (Tick)
board.cache_hierarchy.dptw_caches5.tags.tagAccesses            0                       # Number of tag accesses (Count)
board.cache_hierarchy.dptw_caches5.tags.dataAccesses            0                       # Number of data accesses (Count)
board.cache_hierarchy.dptw_caches5.tags.power_state.pwrStateResidencyTicks::UNDEFINED     21074904                       # Cumulative time (in ticks) in various power states (Tick)
board.cache_hierarchy.dptw_caches6.blockedCycles::no_mshrs            0                       # number of cycles access was blocked (Cycle)
board.cache_hierarchy.dptw_caches6.blockedCycles::no_targets            0                       # number of cycles access was blocked (Cycle)
board.cache_hierarchy.dptw_caches6.blockedCauses::no_mshrs            0                       # number of times access was blocked (Count)
board.cache_hierarchy.dptw_caches6.blockedCauses::no_targets            0                       # number of times access was blocked (Count)
board.cache_hierarchy.dptw_caches6.avgBlocked::no_mshrs          nan                       # average number of cycles each access was blocked ((Cycle/Count))
board.cache_hierarchy.dptw_caches6.avgBlocked::no_targets          nan                       # average number of cycles each access was blocked ((Cycle/Count))
board.cache_hierarchy.dptw_caches6.replacements            0                       # number of replacements (Count)
board.cache_hierarchy.dptw_caches6.power_state.pwrStateResidencyTicks::UNDEFINED     21074904                       # Cumulative time (in ticks) in various power states (Tick)
board.cache_hierarchy.dptw_caches6.tags.tagsInUse            0                       # Average ticks per tags in use ((Tick/Count))
board.cache_hierarchy.dptw_caches6.tags.totalRefs            0                       # Total number of references to valid blocks. (Count)
board.cache_hierarchy.dptw_caches6.tags.sampledRefs            0                       # Sample count of references to valid blocks. (Count)
board.cache_hierarchy.dptw_caches6.tags.avgRefs          nan                       # Average number of references to valid blocks. ((Count/Count))
board.cache_hierarchy.dptw_caches6.tags.warmupTick            0                       # The tick when the warmup percentage was hit. (Tick)
board.cache_hierarchy.dptw_caches6.tags.tagAccesses            0                       # Number of tag accesses (Count)
board.cache_hierarchy.dptw_caches6.tags.dataAccesses            0                       # Number of data accesses (Count)
board.cache_hierarchy.dptw_caches6.tags.power_state.pwrStateResidencyTicks::UNDEFINED     21074904                       # Cumulative time (in ticks) in various power states (Tick)
board.cache_hierarchy.dptw_caches7.blockedCycles::no_mshrs            0                       # number of cycles access was blocked (Cycle)
board.cache_hierarchy.dptw_caches7.blockedCycles::no_targets            0                       # number of cycles access was blocked (Cycle)
board.cache_hierarchy.dptw_caches7.blockedCauses::no_mshrs            0                       # number of times access was blocked (Count)
board.cache_hierarchy.dptw_caches7.blockedCauses::no_targets            0                       # number of times access was blocked (Count)
board.cache_hierarchy.dptw_caches7.avgBlocked::no_mshrs          nan                       # average number of cycles each access was blocked ((Cycle/Count))
board.cache_hierarchy.dptw_caches7.avgBlocked::no_targets          nan                       # average number of cycles each access was blocked ((Cycle/Count))
board.cache_hierarchy.dptw_caches7.replacements            0                       # number of replacements (Count)
board.cache_hierarchy.dptw_caches7.power_state.pwrStateResidencyTicks::UNDEFINED     21074904                       # Cumulative time (in ticks) in various power states (Tick)
board.cache_hierarchy.dptw_caches7.tags.tagsInUse            0                       # Average ticks per tags in use ((Tick/Count))
board.cache_hierarchy.dptw_caches7.tags.totalRefs            0                       # Total number of references to valid blocks. (Count)
board.cache_hierarchy.dptw_caches7.tags.sampledRefs            0                       # Sample count of references to valid blocks. (Count)
board.cache_hierarchy.dptw_caches7.tags.avgRefs          nan                       # Average number of references to valid blocks. ((Count/Count))
board.cache_hierarchy.dptw_caches7.tags.warmupTick            0                       # The tick when the warmup percentage was hit. (Tick)
board.cache_hierarchy.dptw_caches7.tags.tagAccesses            0                       # Number of tag accesses (Count)
board.cache_hierarchy.dptw_caches7.tags.dataAccesses            0                       # Number of data accesses (Count)
board.cache_hierarchy.dptw_caches7.tags.power_state.pwrStateResidencyTicks::UNDEFINED     21074904                       # Cumulative time (in ticks) in various power states (Tick)
board.cache_hierarchy.iptw_caches0.blockedCycles::no_mshrs            0                       # number of cycles access was blocked (Cycle)
board.cache_hierarchy.iptw_caches0.blockedCycles::no_targets            0                       # number of cycles access was blocked (Cycle)
board.cache_hierarchy.iptw_caches0.blockedCauses::no_mshrs            0                       # number of times access was blocked (Count)
board.cache_hierarchy.iptw_caches0.blockedCauses::no_targets            0                       # number of times access was blocked (Count)
board.cache_hierarchy.iptw_caches0.avgBlocked::no_mshrs          nan                       # average number of cycles each access was blocked ((Cycle/Count))
board.cache_hierarchy.iptw_caches0.avgBlocked::no_targets          nan                       # average number of cycles each access was blocked ((Cycle/Count))
board.cache_hierarchy.iptw_caches0.replacements            0                       # number of replacements (Count)
board.cache_hierarchy.iptw_caches0.power_state.pwrStateResidencyTicks::UNDEFINED     21074904                       # Cumulative time (in ticks) in various power states (Tick)
board.cache_hierarchy.iptw_caches0.tags.tagsInUse            0                       # Average ticks per tags in use ((Tick/Count))
board.cache_hierarchy.iptw_caches0.tags.totalRefs            0                       # Total number of references to valid blocks. (Count)
board.cache_hierarchy.iptw_caches0.tags.sampledRefs            0                       # Sample count of references to valid blocks. (Count)
board.cache_hierarchy.iptw_caches0.tags.avgRefs          nan                       # Average number of references to valid blocks. ((Count/Count))
board.cache_hierarchy.iptw_caches0.tags.warmupTick            0                       # The tick when the warmup percentage was hit. (Tick)
board.cache_hierarchy.iptw_caches0.tags.tagAccesses            0                       # Number of tag accesses (Count)
board.cache_hierarchy.iptw_caches0.tags.dataAccesses            0                       # Number of data accesses (Count)
board.cache_hierarchy.iptw_caches0.tags.power_state.pwrStateResidencyTicks::UNDEFINED     21074904                       # Cumulative time (in ticks) in various power states (Tick)
board.cache_hierarchy.iptw_caches1.blockedCycles::no_mshrs            0                       # number of cycles access was blocked (Cycle)
board.cache_hierarchy.iptw_caches1.blockedCycles::no_targets            0                       # number of cycles access was blocked (Cycle)
board.cache_hierarchy.iptw_caches1.blockedCauses::no_mshrs            0                       # number of times access was blocked (Count)
board.cache_hierarchy.iptw_caches1.blockedCauses::no_targets            0                       # number of times access was blocked (Count)
board.cache_hierarchy.iptw_caches1.avgBlocked::no_mshrs          nan                       # average number of cycles each access was blocked ((Cycle/Count))
board.cache_hierarchy.iptw_caches1.avgBlocked::no_targets          nan                       # average number of cycles each access was blocked ((Cycle/Count))
board.cache_hierarchy.iptw_caches1.replacements            0                       # number of replacements (Count)
board.cache_hierarchy.iptw_caches1.power_state.pwrStateResidencyTicks::UNDEFINED     21074904                       # Cumulative time (in ticks) in various power states (Tick)
board.cache_hierarchy.iptw_caches1.tags.tagsInUse            0                       # Average ticks per tags in use ((Tick/Count))
board.cache_hierarchy.iptw_caches1.tags.totalRefs            0                       # Total number of references to valid blocks. (Count)
board.cache_hierarchy.iptw_caches1.tags.sampledRefs            0                       # Sample count of references to valid blocks. (Count)
board.cache_hierarchy.iptw_caches1.tags.avgRefs          nan                       # Average number of references to valid blocks. ((Count/Count))
board.cache_hierarchy.iptw_caches1.tags.warmupTick            0                       # The tick when the warmup percentage was hit. (Tick)
board.cache_hierarchy.iptw_caches1.tags.tagAccesses            0                       # Number of tag accesses (Count)
board.cache_hierarchy.iptw_caches1.tags.dataAccesses            0                       # Number of data accesses (Count)
board.cache_hierarchy.iptw_caches1.tags.power_state.pwrStateResidencyTicks::UNDEFINED     21074904                       # Cumulative time (in ticks) in various power states (Tick)
board.cache_hierarchy.iptw_caches2.blockedCycles::no_mshrs            0                       # number of cycles access was blocked (Cycle)
board.cache_hierarchy.iptw_caches2.blockedCycles::no_targets            0                       # number of cycles access was blocked (Cycle)
board.cache_hierarchy.iptw_caches2.blockedCauses::no_mshrs            0                       # number of times access was blocked (Count)
board.cache_hierarchy.iptw_caches2.blockedCauses::no_targets            0                       # number of times access was blocked (Count)
board.cache_hierarchy.iptw_caches2.avgBlocked::no_mshrs          nan                       # average number of cycles each access was blocked ((Cycle/Count))
board.cache_hierarchy.iptw_caches2.avgBlocked::no_targets          nan                       # average number of cycles each access was blocked ((Cycle/Count))
board.cache_hierarchy.iptw_caches2.replacements            0                       # number of replacements (Count)
board.cache_hierarchy.iptw_caches2.power_state.pwrStateResidencyTicks::UNDEFINED     21074904                       # Cumulative time (in ticks) in various power states (Tick)
board.cache_hierarchy.iptw_caches2.tags.tagsInUse            0                       # Average ticks per tags in use ((Tick/Count))
board.cache_hierarchy.iptw_caches2.tags.totalRefs            0                       # Total number of references to valid blocks. (Count)
board.cache_hierarchy.iptw_caches2.tags.sampledRefs            0                       # Sample count of references to valid blocks. (Count)
board.cache_hierarchy.iptw_caches2.tags.avgRefs          nan                       # Average number of references to valid blocks. ((Count/Count))
board.cache_hierarchy.iptw_caches2.tags.warmupTick            0                       # The tick when the warmup percentage was hit. (Tick)
board.cache_hierarchy.iptw_caches2.tags.tagAccesses            0                       # Number of tag accesses (Count)
board.cache_hierarchy.iptw_caches2.tags.dataAccesses            0                       # Number of data accesses (Count)
board.cache_hierarchy.iptw_caches2.tags.power_state.pwrStateResidencyTicks::UNDEFINED     21074904                       # Cumulative time (in ticks) in various power states (Tick)
board.cache_hierarchy.iptw_caches3.blockedCycles::no_mshrs            0                       # number of cycles access was blocked (Cycle)
board.cache_hierarchy.iptw_caches3.blockedCycles::no_targets            0                       # number of cycles access was blocked (Cycle)
board.cache_hierarchy.iptw_caches3.blockedCauses::no_mshrs            0                       # number of times access was blocked (Count)
board.cache_hierarchy.iptw_caches3.blockedCauses::no_targets            0                       # number of times access was blocked (Count)
board.cache_hierarchy.iptw_caches3.avgBlocked::no_mshrs          nan                       # average number of cycles each access was blocked ((Cycle/Count))
board.cache_hierarchy.iptw_caches3.avgBlocked::no_targets          nan                       # average number of cycles each access was blocked ((Cycle/Count))
board.cache_hierarchy.iptw_caches3.replacements            0                       # number of replacements (Count)
board.cache_hierarchy.iptw_caches3.power_state.pwrStateResidencyTicks::UNDEFINED     21074904                       # Cumulative time (in ticks) in various power states (Tick)
board.cache_hierarchy.iptw_caches3.tags.tagsInUse            0                       # Average ticks per tags in use ((Tick/Count))
board.cache_hierarchy.iptw_caches3.tags.totalRefs            0                       # Total number of references to valid blocks. (Count)
board.cache_hierarchy.iptw_caches3.tags.sampledRefs            0                       # Sample count of references to valid blocks. (Count)
board.cache_hierarchy.iptw_caches3.tags.avgRefs          nan                       # Average number of references to valid blocks. ((Count/Count))
board.cache_hierarchy.iptw_caches3.tags.warmupTick            0                       # The tick when the warmup percentage was hit. (Tick)
board.cache_hierarchy.iptw_caches3.tags.tagAccesses            0                       # Number of tag accesses (Count)
board.cache_hierarchy.iptw_caches3.tags.dataAccesses            0                       # Number of data accesses (Count)
board.cache_hierarchy.iptw_caches3.tags.power_state.pwrStateResidencyTicks::UNDEFINED     21074904                       # Cumulative time (in ticks) in various power states (Tick)
board.cache_hierarchy.iptw_caches4.blockedCycles::no_mshrs            0                       # number of cycles access was blocked (Cycle)
board.cache_hierarchy.iptw_caches4.blockedCycles::no_targets            0                       # number of cycles access was blocked (Cycle)
board.cache_hierarchy.iptw_caches4.blockedCauses::no_mshrs            0                       # number of times access was blocked (Count)
board.cache_hierarchy.iptw_caches4.blockedCauses::no_targets            0                       # number of times access was blocked (Count)
board.cache_hierarchy.iptw_caches4.avgBlocked::no_mshrs          nan                       # average number of cycles each access was blocked ((Cycle/Count))
board.cache_hierarchy.iptw_caches4.avgBlocked::no_targets          nan                       # average number of cycles each access was blocked ((Cycle/Count))
board.cache_hierarchy.iptw_caches4.replacements            0                       # number of replacements (Count)
board.cache_hierarchy.iptw_caches4.power_state.pwrStateResidencyTicks::UNDEFINED     21074904                       # Cumulative time (in ticks) in various power states (Tick)
board.cache_hierarchy.iptw_caches4.tags.tagsInUse            0                       # Average ticks per tags in use ((Tick/Count))
board.cache_hierarchy.iptw_caches4.tags.totalRefs            0                       # Total number of references to valid blocks. (Count)
board.cache_hierarchy.iptw_caches4.tags.sampledRefs            0                       # Sample count of references to valid blocks. (Count)
board.cache_hierarchy.iptw_caches4.tags.avgRefs          nan                       # Average number of references to valid blocks. ((Count/Count))
board.cache_hierarchy.iptw_caches4.tags.warmupTick            0                       # The tick when the warmup percentage was hit. (Tick)
board.cache_hierarchy.iptw_caches4.tags.tagAccesses            0                       # Number of tag accesses (Count)
board.cache_hierarchy.iptw_caches4.tags.dataAccesses            0                       # Number of data accesses (Count)
board.cache_hierarchy.iptw_caches4.tags.power_state.pwrStateResidencyTicks::UNDEFINED     21074904                       # Cumulative time (in ticks) in various power states (Tick)
board.cache_hierarchy.iptw_caches5.blockedCycles::no_mshrs            0                       # number of cycles access was blocked (Cycle)
board.cache_hierarchy.iptw_caches5.blockedCycles::no_targets            0                       # number of cycles access was blocked (Cycle)
board.cache_hierarchy.iptw_caches5.blockedCauses::no_mshrs            0                       # number of times access was blocked (Count)
board.cache_hierarchy.iptw_caches5.blockedCauses::no_targets            0                       # number of times access was blocked (Count)
board.cache_hierarchy.iptw_caches5.avgBlocked::no_mshrs          nan                       # average number of cycles each access was blocked ((Cycle/Count))
board.cache_hierarchy.iptw_caches5.avgBlocked::no_targets          nan                       # average number of cycles each access was blocked ((Cycle/Count))
board.cache_hierarchy.iptw_caches5.replacements            0                       # number of replacements (Count)
board.cache_hierarchy.iptw_caches5.power_state.pwrStateResidencyTicks::UNDEFINED     21074904                       # Cumulative time (in ticks) in various power states (Tick)
board.cache_hierarchy.iptw_caches5.tags.tagsInUse            0                       # Average ticks per tags in use ((Tick/Count))
board.cache_hierarchy.iptw_caches5.tags.totalRefs            0                       # Total number of references to valid blocks. (Count)
board.cache_hierarchy.iptw_caches5.tags.sampledRefs            0                       # Sample count of references to valid blocks. (Count)
board.cache_hierarchy.iptw_caches5.tags.avgRefs          nan                       # Average number of references to valid blocks. ((Count/Count))
board.cache_hierarchy.iptw_caches5.tags.warmupTick            0                       # The tick when the warmup percentage was hit. (Tick)
board.cache_hierarchy.iptw_caches5.tags.tagAccesses            0                       # Number of tag accesses (Count)
board.cache_hierarchy.iptw_caches5.tags.dataAccesses            0                       # Number of data accesses (Count)
board.cache_hierarchy.iptw_caches5.tags.power_state.pwrStateResidencyTicks::UNDEFINED     21074904                       # Cumulative time (in ticks) in various power states (Tick)
board.cache_hierarchy.iptw_caches6.blockedCycles::no_mshrs            0                       # number of cycles access was blocked (Cycle)
board.cache_hierarchy.iptw_caches6.blockedCycles::no_targets            0                       # number of cycles access was blocked (Cycle)
board.cache_hierarchy.iptw_caches6.blockedCauses::no_mshrs            0                       # number of times access was blocked (Count)
board.cache_hierarchy.iptw_caches6.blockedCauses::no_targets            0                       # number of times access was blocked (Count)
board.cache_hierarchy.iptw_caches6.avgBlocked::no_mshrs          nan                       # average number of cycles each access was blocked ((Cycle/Count))
board.cache_hierarchy.iptw_caches6.avgBlocked::no_targets          nan                       # average number of cycles each access was blocked ((Cycle/Count))
board.cache_hierarchy.iptw_caches6.replacements            0                       # number of replacements (Count)
board.cache_hierarchy.iptw_caches6.power_state.pwrStateResidencyTicks::UNDEFINED     21074904                       # Cumulative time (in ticks) in various power states (Tick)
board.cache_hierarchy.iptw_caches6.tags.tagsInUse            0                       # Average ticks per tags in use ((Tick/Count))
board.cache_hierarchy.iptw_caches6.tags.totalRefs            0                       # Total number of references to valid blocks. (Count)
board.cache_hierarchy.iptw_caches6.tags.sampledRefs            0                       # Sample count of references to valid blocks. (Count)
board.cache_hierarchy.iptw_caches6.tags.avgRefs          nan                       # Average number of references to valid blocks. ((Count/Count))
board.cache_hierarchy.iptw_caches6.tags.warmupTick            0                       # The tick when the warmup percentage was hit. (Tick)
board.cache_hierarchy.iptw_caches6.tags.tagAccesses            0                       # Number of tag accesses (Count)
board.cache_hierarchy.iptw_caches6.tags.dataAccesses            0                       # Number of data accesses (Count)
board.cache_hierarchy.iptw_caches6.tags.power_state.pwrStateResidencyTicks::UNDEFINED     21074904                       # Cumulative time (in ticks) in various power states (Tick)
board.cache_hierarchy.iptw_caches7.blockedCycles::no_mshrs            0                       # number of cycles access was blocked (Cycle)
board.cache_hierarchy.iptw_caches7.blockedCycles::no_targets            0                       # number of cycles access was blocked (Cycle)
board.cache_hierarchy.iptw_caches7.blockedCauses::no_mshrs            0                       # number of times access was blocked (Count)
board.cache_hierarchy.iptw_caches7.blockedCauses::no_targets            0                       # number of times access was blocked (Count)
board.cache_hierarchy.iptw_caches7.avgBlocked::no_mshrs          nan                       # average number of cycles each access was blocked ((Cycle/Count))
board.cache_hierarchy.iptw_caches7.avgBlocked::no_targets          nan                       # average number of cycles each access was blocked ((Cycle/Count))
board.cache_hierarchy.iptw_caches7.replacements            0                       # number of replacements (Count)
board.cache_hierarchy.iptw_caches7.power_state.pwrStateResidencyTicks::UNDEFINED     21074904                       # Cumulative time (in ticks) in various power states (Tick)
board.cache_hierarchy.iptw_caches7.tags.tagsInUse            0                       # Average ticks per tags in use ((Tick/Count))
board.cache_hierarchy.iptw_caches7.tags.totalRefs            0                       # Total number of references to valid blocks. (Count)
board.cache_hierarchy.iptw_caches7.tags.sampledRefs            0                       # Sample count of references to valid blocks. (Count)
board.cache_hierarchy.iptw_caches7.tags.avgRefs          nan                       # Average number of references to valid blocks. ((Count/Count))
board.cache_hierarchy.iptw_caches7.tags.warmupTick            0                       # The tick when the warmup percentage was hit. (Tick)
board.cache_hierarchy.iptw_caches7.tags.tagAccesses            0                       # Number of tag accesses (Count)
board.cache_hierarchy.iptw_caches7.tags.dataAccesses            0                       # Number of data accesses (Count)
board.cache_hierarchy.iptw_caches7.tags.power_state.pwrStateResidencyTicks::UNDEFINED     21074904                       # Cumulative time (in ticks) in various power states (Tick)
board.cache_hierarchy.l1dcaches0.demandHits::processor.cores0.core.data         2946                       # number of demand (read+write) hits (Count)
board.cache_hierarchy.l1dcaches0.demandHits::total         2946                       # number of demand (read+write) hits (Count)
board.cache_hierarchy.l1dcaches0.overallHits::processor.cores0.core.data         2946                       # number of overall hits (Count)
board.cache_hierarchy.l1dcaches0.overallHits::total         2946                       # number of overall hits (Count)
board.cache_hierarchy.l1dcaches0.demandMisses::processor.cores0.core.data          256                       # number of demand (read+write) misses (Count)
board.cache_hierarchy.l1dcaches0.demandMisses::total          256                       # number of demand (read+write) misses (Count)
board.cache_hierarchy.l1dcaches0.overallMisses::processor.cores0.core.data          256                       # number of overall misses (Count)
board.cache_hierarchy.l1dcaches0.overallMisses::total          256                       # number of overall misses (Count)
board.cache_hierarchy.l1dcaches0.demandMissLatency::processor.cores0.core.data     14090229                       # number of demand (read+write) miss ticks (Tick)
board.cache_hierarchy.l1dcaches0.demandMissLatency::total     14090229                       # number of demand (read+write) miss ticks (Tick)
board.cache_hierarchy.l1dcaches0.overallMissLatency::processor.cores0.core.data     14090229                       # number of overall miss ticks (Tick)
board.cache_hierarchy.l1dcaches0.overallMissLatency::total     14090229                       # number of overall miss ticks (Tick)
board.cache_hierarchy.l1dcaches0.demandAccesses::processor.cores0.core.data         3202                       # number of demand (read+write) accesses (Count)
board.cache_hierarchy.l1dcaches0.demandAccesses::total         3202                       # number of demand (read+write) accesses (Count)
board.cache_hierarchy.l1dcaches0.overallAccesses::processor.cores0.core.data         3202                       # number of overall (read+write) accesses (Count)
board.cache_hierarchy.l1dcaches0.overallAccesses::total         3202                       # number of overall (read+write) accesses (Count)
board.cache_hierarchy.l1dcaches0.demandMissRate::processor.cores0.core.data     0.079950                       # miss rate for demand accesses (Ratio)
board.cache_hierarchy.l1dcaches0.demandMissRate::total     0.079950                       # miss rate for demand accesses (Ratio)
board.cache_hierarchy.l1dcaches0.overallMissRate::processor.cores0.core.data     0.079950                       # miss rate for overall accesses (Ratio)
board.cache_hierarchy.l1dcaches0.overallMissRate::total     0.079950                       # miss rate for overall accesses (Ratio)
board.cache_hierarchy.l1dcaches0.demandAvgMissLatency::processor.cores0.core.data 55039.957031                       # average overall miss latency in ticks ((Tick/Count))
board.cache_hierarchy.l1dcaches0.demandAvgMissLatency::total 55039.957031                       # average overall miss latency in ticks ((Tick/Count))
board.cache_hierarchy.l1dcaches0.overallAvgMissLatency::processor.cores0.core.data 55039.957031                       # average overall miss latency ((Tick/Count))
board.cache_hierarchy.l1dcaches0.overallAvgMissLatency::total 55039.957031                       # average overall miss latency ((Tick/Count))
board.cache_hierarchy.l1dcaches0.blockedCycles::no_mshrs            0                       # number of cycles access was blocked (Cycle)
board.cache_hierarchy.l1dcaches0.blockedCycles::no_targets            0                       # number of cycles access was blocked (Cycle)
board.cache_hierarchy.l1dcaches0.blockedCauses::no_mshrs            0                       # number of times access was blocked (Count)
board.cache_hierarchy.l1dcaches0.blockedCauses::no_targets            0                       # number of times access was blocked (Count)
board.cache_hierarchy.l1dcaches0.avgBlocked::no_mshrs          nan                       # average number of cycles each access was blocked ((Cycle/Count))
board.cache_hierarchy.l1dcaches0.avgBlocked::no_targets          nan                       # average number of cycles each access was blocked ((Cycle/Count))
board.cache_hierarchy.l1dcaches0.demandMshrHits::processor.cores0.core.data          107                       # number of demand (read+write) MSHR hits (Count)
board.cache_hierarchy.l1dcaches0.demandMshrHits::total          107                       # number of demand (read+write) MSHR hits (Count)
board.cache_hierarchy.l1dcaches0.overallMshrHits::processor.cores0.core.data          107                       # number of overall MSHR hits (Count)
board.cache_hierarchy.l1dcaches0.overallMshrHits::total          107                       # number of overall MSHR hits (Count)
board.cache_hierarchy.l1dcaches0.demandMshrMisses::processor.cores0.core.data          149                       # number of demand (read+write) MSHR misses (Count)
board.cache_hierarchy.l1dcaches0.demandMshrMisses::total          149                       # number of demand (read+write) MSHR misses (Count)
board.cache_hierarchy.l1dcaches0.overallMshrMisses::cache_hierarchy.l1dcaches0.prefetcher           47                       # number of overall MSHR misses (Count)
board.cache_hierarchy.l1dcaches0.overallMshrMisses::processor.cores0.core.data          149                       # number of overall MSHR misses (Count)
board.cache_hierarchy.l1dcaches0.overallMshrMisses::total          196                       # number of overall MSHR misses (Count)
board.cache_hierarchy.l1dcaches0.demandMshrMissLatency::processor.cores0.core.data      9477180                       # number of demand (read+write) MSHR miss ticks (Tick)
board.cache_hierarchy.l1dcaches0.demandMshrMissLatency::total      9477180                       # number of demand (read+write) MSHR miss ticks (Tick)
board.cache_hierarchy.l1dcaches0.overallMshrMissLatency::cache_hierarchy.l1dcaches0.prefetcher      3123811                       # number of overall MSHR miss ticks (Tick)
board.cache_hierarchy.l1dcaches0.overallMshrMissLatency::processor.cores0.core.data      9477180                       # number of overall MSHR miss ticks (Tick)
board.cache_hierarchy.l1dcaches0.overallMshrMissLatency::total     12600991                       # number of overall MSHR miss ticks (Tick)
board.cache_hierarchy.l1dcaches0.demandMshrMissRate::processor.cores0.core.data     0.046533                       # mshr miss ratio for demand accesses (Ratio)
board.cache_hierarchy.l1dcaches0.demandMshrMissRate::total     0.046533                       # mshr miss ratio for demand accesses (Ratio)
board.cache_hierarchy.l1dcaches0.overallMshrMissRate::cache_hierarchy.l1dcaches0.prefetcher          inf                       # mshr miss ratio for overall accesses (Ratio)
board.cache_hierarchy.l1dcaches0.overallMshrMissRate::processor.cores0.core.data     0.046533                       # mshr miss ratio for overall accesses (Ratio)
board.cache_hierarchy.l1dcaches0.overallMshrMissRate::total     0.061212                       # mshr miss ratio for overall accesses (Ratio)
board.cache_hierarchy.l1dcaches0.demandAvgMshrMissLatency::processor.cores0.core.data 63605.234899                       # average overall mshr miss latency ((Tick/Count))
board.cache_hierarchy.l1dcaches0.demandAvgMshrMissLatency::total 63605.234899                       # average overall mshr miss latency ((Tick/Count))
board.cache_hierarchy.l1dcaches0.overallAvgMshrMissLatency::cache_hierarchy.l1dcaches0.prefetcher 66464.063830                       # average overall mshr miss latency ((Tick/Count))
board.cache_hierarchy.l1dcaches0.overallAvgMshrMissLatency::processor.cores0.core.data 63605.234899                       # average overall mshr miss latency ((Tick/Count))
board.cache_hierarchy.l1dcaches0.overallAvgMshrMissLatency::total 64290.770408                       # average overall mshr miss latency ((Tick/Count))
board.cache_hierarchy.l1dcaches0.replacements            0                       # number of replacements (Count)
board.cache_hierarchy.l1dcaches0.HardPFReq.mshrMisses::cache_hierarchy.l1dcaches0.prefetcher           47                       # number of HardPFReq MSHR misses (Count)
board.cache_hierarchy.l1dcaches0.HardPFReq.mshrMisses::total           47                       # number of HardPFReq MSHR misses (Count)
board.cache_hierarchy.l1dcaches0.HardPFReq.mshrMissLatency::cache_hierarchy.l1dcaches0.prefetcher      3123811                       # number of HardPFReq MSHR miss ticks (Tick)
board.cache_hierarchy.l1dcaches0.HardPFReq.mshrMissLatency::total      3123811                       # number of HardPFReq MSHR miss ticks (Tick)
board.cache_hierarchy.l1dcaches0.HardPFReq.mshrMissRate::cache_hierarchy.l1dcaches0.prefetcher          inf                       # mshr miss rate for HardPFReq accesses (Ratio)
[...]
board.processor.cores7.core.cc_buffer.decode_buffer_occupancy_histogram::26            0      0.00%    100.00% # Distribution of decode buffer occupancy (Unspecified)
board.processor.cores7.core.cc_buffer.decode_buffer_occupancy_histogram::27            0      0.00%    100.00% # Distribution of decode buffer occupancy (Unspecified)
board.processor.cores7.core.cc_buffer.decode_buffer_occupancy_histogram::28            0      0.00%    100.00% # Distribution of decode buffer occupancy (Unspecified)
board.processor.cores7.core.cc_buffer.decode_buffer_occupancy_histogram::29            0      0.00%    100.00% # Distribution of decode buffer occupancy (Unspecified)
board.processor.cores7.core.cc_buffer.decode_buffer_occupancy_histogram::30            0      0.00%    100.00% # Distribution of decode buffer occupancy (Unspecified)
board.processor.cores7.core.cc_buffer.decode_buffer_occupancy_histogram::31            0      0.00%    100.00% # Distribution of decode buffer occupancy (Unspecified)
board.processor.cores7.core.cc_buffer.decode_buffer_occupancy_histogram::32            0      0.00%    100.00% # Distribution of decode buffer occupancy (Unspecified)
board.processor.cores7.core.cc_buffer.decode_buffer_occupancy_histogram::33            0      0.00%    100.00% # Distribution of decode buffer occupancy (Unspecified)
board.processor.cores7.core.cc_buffer.decode_buffer_occupancy_histogram::34            0      0.00%    100.00% # Distribution of decode buffer occupancy (Unspecified)
board.processor.cores7.core.cc_buffer.decode_buffer_occupancy_histogram::35            0      0.00%    100.00% # Distribution of decode buffer occupancy (Unspecified)
board.processor.cores7.core.cc_buffer.decode_buffer_occupancy_histogram::36            0      0.00%    100.00% # Distribution of decode buffer occupancy (Unspecified)
board.processor.cores7.core.cc_buffer.decode_buffer_occupancy_histogram::37            0      0.00%    100.00% # Distribution of decode buffer occupancy (Unspecified)
board.processor.cores7.core.cc_buffer.decode_buffer_occupancy_histogram::38            0      0.00%    100.00% # Distribution of decode buffer occupancy (Unspecified)
board.processor.cores7.core.cc_buffer.decode_buffer_occupancy_histogram::39            0      0.00%    100.00% # Distribution of decode buffer occupancy (Unspecified)
board.processor.cores7.core.cc_buffer.decode_buffer_occupancy_histogram::40            0      0.00%    100.00% # Distribution of decode buffer occupancy (Unspecified)
board.processor.cores7.core.cc_buffer.decode_buffer_occupancy_histogram::41            0      0.00%    100.00% # Distribution of decode buffer occupancy (Unspecified)
board.processor.cores7.core.cc_buffer.decode_buffer_occupancy_histogram::42            0      0.00%    100.00% # Distribution of decode buffer occupancy (Unspecified)
board.processor.cores7.core.cc_buffer.decode_buffer_occupancy_histogram::43            0      0.00%    100.00% # Distribution of decode buffer occupancy (Unspecified)
board.processor.cores7.core.cc_buffer.decode_buffer_occupancy_histogram::44            0      0.00%    100.00% # Distribution of decode buffer occupancy (Unspecified)
board.processor.cores7.core.cc_buffer.decode_buffer_occupancy_histogram::45            0      0.00%    100.00% # Distribution of decode buffer occupancy (Unspecified)
board.processor.cores7.core.cc_buffer.decode_buffer_occupancy_histogram::46            0      0.00%    100.00% # Distribution of decode buffer occupancy (Unspecified)
board.processor.cores7.core.cc_buffer.decode_buffer_occupancy_histogram::47            0      0.00%    100.00% # Distribution of decode buffer occupancy (Unspecified)
board.processor.cores7.core.cc_buffer.decode_buffer_occupancy_histogram::48            0      0.00%    100.00% # Distribution of decode buffer occupancy (Unspecified)
board.processor.cores7.core.cc_buffer.decode_buffer_occupancy_histogram::49            0      0.00%    100.00% # Distribution of decode buffer occupancy (Unspecified)
board.processor.cores7.core.cc_buffer.decode_buffer_occupancy_histogram::50            0      0.00%    100.00% # Distribution of decode buffer occupancy (Unspecified)
board.processor.cores7.core.cc_buffer.decode_buffer_occupancy_histogram::51            0      0.00%    100.00% # Distribution of decode buffer occupancy (Unspecified)
board.processor.cores7.core.cc_buffer.decode_buffer_occupancy_histogram::52            0      0.00%    100.00% # Distribution of decode buffer occupancy (Unspecified)
board.processor.cores7.core.cc_buffer.decode_buffer_occupancy_histogram::53            0      0.00%    100.00% # Distribution of decode buffer occupancy (Unspecified)
board.processor.cores7.core.cc_buffer.decode_buffer_occupancy_histogram::54            0      0.00%    100.00% # Distribution of decode buffer occupancy (Unspecified)
board.processor.cores7.core.cc_buffer.decode_buffer_occupancy_histogram::55            0      0.00%    100.00% # Distribution of decode buffer occupancy (Unspecified)
board.processor.cores7.core.cc_buffer.decode_buffer_occupancy_histogram::56            0      0.00%    100.00% # Distribution of decode buffer occupancy (Unspecified)
board.processor.cores7.core.cc_buffer.decode_buffer_occupancy_histogram::57            0      0.00%    100.00% # Distribution of decode buffer occupancy (Unspecified)
board.processor.cores7.core.cc_buffer.decode_buffer_occupancy_histogram::58            0      0.00%    100.00% # Distribution of decode buffer occupancy (Unspecified)
board.processor.cores7.core.cc_buffer.decode_buffer_occupancy_histogram::59            0      0.00%    100.00% # Distribution of decode buffer occupancy (Unspecified)
board.processor.cores7.core.cc_buffer.decode_buffer_occupancy_histogram::60            0      0.00%    100.00% # Distribution of decode buffer occupancy (Unspecified)
board.processor.cores7.core.cc_buffer.decode_buffer_occupancy_histogram::61            0      0.00%    100.00% # Distribution of decode buffer occupancy (Unspecified)
board.processor.cores7.core.cc_buffer.decode_buffer_occupancy_histogram::62            0      0.00%    100.00% # Distribution of decode buffer occupancy (Unspecified)
board.processor.cores7.core.cc_buffer.decode_buffer_occupancy_histogram::63            0      0.00%    100.00% # Distribution of decode buffer occupancy (Unspecified)
board.processor.cores7.core.cc_buffer.decode_buffer_occupancy_histogram::64            0      0.00%    100.00% # Distribution of decode buffer occupancy (Unspecified)
board.processor.cores7.core.cc_buffer.decode_buffer_occupancy_histogram::overflows            0      0.00%    100.00% # Distribution of decode buffer occupancy (Unspecified)
board.processor.cores7.core.cc_buffer.decode_buffer_occupancy_histogram::min_value            0                       # Distribution of decode buffer occupancy (Unspecified)
board.processor.cores7.core.cc_buffer.decode_buffer_occupancy_histogram::max_value            0                       # Distribution of decode buffer occupancy (Unspecified)
board.processor.cores7.core.cc_buffer.decode_buffer_occupancy_histogram::total        15822                       # Distribution of decode buffer occupancy (Unspecified)
board.processor.cores7.core.cc_buffer.execute_buffer_occupancy_histogram::samples        15822                       # Distribution of decode buffer occupancy (Unspecified)
board.processor.cores7.core.cc_buffer.execute_buffer_occupancy_histogram::mean            0                       # Distribution of decode buffer occupancy (Unspecified)
board.processor.cores7.core.cc_buffer.execute_buffer_occupancy_histogram::stdev            0                       # Distribution of decode buffer occupancy (Unspecified)
board.processor.cores7.core.cc_buffer.execute_buffer_occupancy_histogram::underflows            0      0.00%      0.00% # Distribution of decode buffer occupancy (Unspecified)
board.processor.cores7.core.cc_buffer.execute_buffer_occupancy_histogram::0        15822    100.00%    100.00% # Distribution of decode buffer occupancy (Unspecified)
board.processor.cores7.core.cc_buffer.execute_buffer_occupancy_histogram::1            0      0.00%    100.00% # Distribution of decode buffer occupancy (Unspecified)
board.processor.cores7.core.cc_buffer.execute_buffer_occupancy_histogram::2            0      0.00%    100.00% # Distribution of decode buffer occupancy (Unspecified)
board.processor.cores7.core.cc_buffer.execute_buffer_occupancy_histogram::3            0      0.00%    100.00% # Distribution of decode buffer occupancy (Unspecified)
board.processor.cores7.core.cc_buffer.execute_buffer_occupancy_histogram::4            0      0.00%    100.00% # Distribution of decode buffer occupancy (Unspecified)
board.processor.cores7.core.cc_buffer.execute_buffer_occupancy_histogram::5            0      0.00%    100.00% # Distribution of decode buffer occupancy (Unspecified)
board.processor.cores7.core.cc_buffer.execute_buffer_occupancy_histogram::6            0      0.00%    100.00% # Distribution of decode buffer occupancy (Unspecified)
board.processor.cores7.core.cc_buffer.execute_buffer_occupancy_histogram::7            0      0.00%    100.00% # Distribution of decode buffer occupancy (Unspecified)
board.processor.cores7.core.cc_buffer.execute_buffer_occupancy_histogram::8            0      0.00%    100.00% # Distribution of decode buffer occupancy (Unspecified)
board.processor.cores7.core.cc_buffer.execute_buffer_occupancy_histogram::9            0      0.00%    100.00% # Distribution of decode buffer occupancy (Unspecified)
board.processor.cores7.core.cc_buffer.execute_buffer_occupancy_histogram::10            0      0.00%    100.00% # Distribution of decode buffer occupancy (Unspecified)
board.processor.cores7.core.cc_buffer.execute_buffer_occupancy_histogram::11            0      0.00%    100.00% # Distribution of decode buffer occupancy (Unspecified)
board.processor.cores7.core.cc_buffer.execute_buffer_occupancy_histogram::12            0      0.00%    100.00% # Distribution of decode buffer occupancy (Unspecified)
board.processor.cores7.core.cc_buffer.execute_buffer_occupancy_histogram::13            0      0.00%    100.00% # Distribution of decode buffer occupancy (Unspecified)
board.processor.cores7.core.cc_buffer.execute_buffer_occupancy_histogram::14            0      0.00%    100.00% # Distribution of decode buffer occupancy (Unspecified)
board.processor.cores7.core.cc_buffer.execute_buffer_occupancy_histogram::15            0      0.00%    100.00% # Distribution of decode buffer occupancy (Unspecified)
board.processor.cores7.core.cc_buffer.execute_buffer_occupancy_histogram::16            0      0.00%    100.00% # Distribution of decode buffer occupancy (Unspecified)
board.processor.cores7.core.cc_buffer.execute_buffer_occupancy_histogram::17            0      0.00%    100.00% # Distribution of decode buffer occupancy (Unspecified)
board.processor.cores7.core.cc_buffer.execute_buffer_occupancy_histogram::18            0      0.00%    100.00% # Distribution of decode buffer occupancy (Unspecified)
board.processor.cores7.core.cc_buffer.execute_buffer_occupancy_histogram::19            0      0.00%    100.00% # Distribution of decode buffer occupancy (Unspecified)
board.processor.cores7.core.cc_buffer.execute_buffer_occupancy_histogram::20            0      0.00%    100.00% # Distribution of decode buffer occupancy (Unspecified)
board.processor.cores7.core.cc_buffer.execute_buffer_occupancy_histogram::21            0      0.00%    100.00% # Distribution of decode buffer occupancy (Unspecified)
board.processor.cores7.core.cc_buffer.execute_buffer_occupancy_histogram::22            0      0.00%    100.00% # Distribution of decode buffer occupancy (Unspecified)
board.processor.cores7.core.cc_buffer.execute_buffer_occupancy_histogram::23            0      0.00%    100.00% # Distribution of decode buffer occupancy (Unspecified)
board.processor.cores7.core.cc_buffer.execute_buffer_occupancy_histogram::24            0      0.00%    100.00% # Distribution of decode buffer occupancy (Unspecified)
board.processor.cores7.core.cc_buffer.execute_buffer_occupancy_histogram::25            0      0.00%    100.00% # Distribution of decode buffer occupancy (Unspecified)
board.processor.cores7.core.cc_buffer.execute_buffer_occupancy_histogram::26            0      0.00%    100.00% # Distribution of decode buffer occupancy (Unspecified)
board.processor.cores7.core.cc_buffer.execute_buffer_occupancy_histogram::27            0      0.00%    100.00% # Distribution of decode buffer occupancy (Unspecified)
board.processor.cores7.core.cc_buffer.execute_buffer_occupancy_histogram::28            0      0.00%    100.00% # Distribution of decode buffer occupancy (Unspecified)
board.processor.cores7.core.cc_buffer.execute_buffer_occupancy_histogram::29            0      0.00%    100.00% # Distribution of decode buffer occupancy (Unspecified)
board.processor.cores7.core.cc_buffer.execute_buffer_occupancy_histogram::30            0      0.00%    100.00% # Distribution of decode buffer occupancy (Unspecified)
board.processor.cores7.core.cc_buffer.execute_buffer_occupancy_histogram::31            0      0.00%    100.00% # Distribution of decode buffer occupancy (Unspecified)
board.processor.cores7.core.cc_buffer.execute_buffer_occupancy_histogram::32            0      0.00%    100.00% # Distribution of decode buffer occupancy (Unspecified)
board.processor.cores7.core.cc_buffer.execute_buffer_occupancy_histogram::33            0      0.00%    100.00% # Distribution of decode buffer occupancy (Unspecified)
board.processor.cores7.core.cc_buffer.execute_buffer_occupancy_histogram::34            0      0.00%    100.00% # Distribution of decode buffer occupancy (Unspecified)
board.processor.cores7.core.cc_buffer.execute_buffer_occupancy_histogram::35            0      0.00%    100.00% # Distribution of decode buffer occupancy (Unspecified)
board.processor.cores7.core.cc_buffer.execute_buffer_occupancy_histogram::36            0      0.00%    100.00% # Distribution of decode buffer occupancy (Unspecified)
board.processor.cores7.core.cc_buffer.execute_buffer_occupancy_histogram::37            0      0.00%    100.00% # Distribution of decode buffer occupancy (Unspecified)
board.processor.cores7.core.cc_buffer.execute_buffer_occupancy_histogram::38            0      0.00%    100.00% # Distribution of decode buffer occupancy (Unspecified)
board.processor.cores7.core.cc_buffer.execute_buffer_occupancy_histogram::39            0      0.00%    100.00% # Distribution of decode buffer occupancy (Unspecified)
board.processor.cores7.core.cc_buffer.execute_buffer_occupancy_histogram::40            0      0.00%    100.00% # Distribution of decode buffer occupancy (Unspecified)
board.processor.cores7.core.cc_buffer.execute_buffer_occupancy_histogram::41            0      0.00%    100.00% # Distribution of decode buffer occupancy (Unspecified)
board.processor.cores7.core.cc_buffer.execute_buffer_occupancy_histogram::42            0      0.00%    100.00% # Distribution of decode buffer occupancy (Unspecified)
board.processor.cores7.core.cc_buffer.execute_buffer_occupancy_histogram::43            0      0.00%    100.00% # Distribution of decode buffer occupancy (Unspecified)
board.processor.cores7.core.cc_buffer.execute_buffer_occupancy_histogram::44            0      0.00%    100.00% # Distribution of decode buffer occupancy (Unspecified)
board.processor.cores7.core.cc_buffer.execute_buffer_occupancy_histogram::45            0      0.00%    100.00% # Distribution of decode buffer occupancy (Unspecified)
board.processor.cores7.core.cc_buffer.execute_buffer_occupancy_histogram::46            0      0.00%    100.00% # Distribution of decode buffer occupancy (Unspecified)
board.processor.cores7.core.cc_buffer.execute_buffer_occupancy_histogram::47            0      0.00%    100.00% # Distribution of decode buffer occupancy (Unspecified)
board.processor.cores7.core.cc_buffer.execute_buffer_occupancy_histogram::48            0      0.00%    100.00% # Distribution of decode buffer occupancy (Unspecified)
board.processor.cores7.core.cc_buffer.execute_buffer_occupancy_histogram::49            0      0.00%    100.00% # Distribution of decode buffer occupancy (Unspecified)
board.processor.cores7.core.cc_buffer.execute_buffer_occupancy_histogram::50            0      0.00%    100.00% # Distribution of decode buffer occupancy (Unspecified)
board.processor.cores7.core.cc_buffer.execute_buffer_occupancy_histogram::51            0      0.00%    100.00% # Distribution of decode buffer occupancy (Unspecified)
board.processor.cores7.core.cc_buffer.execute_buffer_occupancy_histogram::52            0      0.00%    100.00% # Distribution of decode buffer occupancy (Unspecified)
board.processor.cores7.core.cc_buffer.execute_buffer_occupancy_histogram::53            0      0.00%    100.00% # Distribution of decode buffer occupancy (Unspecified)
board.processor.cores7.core.cc_buffer.execute_buffer_occupancy_histogram::54            0      0.00%    100.00% # Distribution of decode buffer occupancy (Unspecified)
board.processor.cores7.core.cc_buffer.execute_buffer_occupancy_histogram::55            0      0.00%    100.00% # Distribution of decode buffer occupancy (Unspecified)
board.processor.cores7.core.cc_buffer.execute_buffer_occupancy_histogram::56            0      0.00%    100.00% # Distribution of decode buffer occupancy (Unspecified)
board.processor.cores7.core.cc_buffer.execute_buffer_occupancy_histogram::57            0      0.00%    100.00% # Distribution of decode buffer occupancy (Unspecified)
board.processor.cores7.core.cc_buffer.execute_buffer_occupancy_histogram::58            0      0.00%    100.00% # Distribution of decode buffer occupancy (Unspecified)
board.processor.cores7.core.cc_buffer.execute_buffer_occupancy_histogram::59            0      0.00%    100.00% # Distribution of decode buffer occupancy (Unspecified)
board.processor.cores7.core.cc_buffer.execute_buffer_occupancy_histogram::60            0      0.00%    100.00% # Distribution of decode buffer occupancy (Unspecified)
board.processor.cores7.core.cc_buffer.execute_buffer_occupancy_histogram::61            0      0.00%    100.00% # Distribution of decode buffer occupancy (Unspecified)
board.processor.cores7.core.cc_buffer.execute_buffer_occupancy_histogram::62            0      0.00%    100.00% # Distribution of decode buffer occupancy (Unspecified)
board.processor.cores7.core.cc_buffer.execute_buffer_occupancy_histogram::63            0      0.00%    100.00% # Distribution of decode buffer occupancy (Unspecified)
board.processor.cores7.core.cc_buffer.execute_buffer_occupancy_histogram::64            0      0.00%    100.00% # Distribution of decode buffer occupancy (Unspecified)
board.processor.cores7.core.cc_buffer.execute_buffer_occupancy_histogram::overflows            0      0.00%    100.00% # Distribution of decode buffer occupancy (Unspecified)
board.processor.cores7.core.cc_buffer.execute_buffer_occupancy_histogram::min_value            0                       # Distribution of decode buffer occupancy (Unspecified)
board.processor.cores7.core.cc_buffer.execute_buffer_occupancy_histogram::max_value            0                       # Distribution of decode buffer occupancy (Unspecified)
board.processor.cores7.core.cc_buffer.execute_buffer_occupancy_histogram::total        15822                       # Distribution of decode buffer occupancy (Unspecified)
board.processor.cores7.core.cc_buffer.ooo_stall_signals            0                       # Number of cycles stalled due to buffer (Unspecified)
board.processor.cores7.core.cc_buffer.regfile_insts_processed            0                       # Number of cycles stalled due to buffer (Unspecified)

---------- End Simulation Statistics   ----------
