
---------- Begin Simulation Statistics ----------
simSeconds                                   0.000109                       # Number of seconds simulated (Second)
simTicks                                    108879012                       # Number of ticks simulated (Tick)
finalTick                                   108879012                       # Number of ticks from beginning of simulation (restored from checkpoints and never reset) (Tick)
simFreq                                  1000000000000                       # The number of ticks per simulated second ((Tick/Second))
hostSeconds                                      4.61                       # Real time elapsed on the host (Second)
hostTickRate                                 23622245                       # The number of ticks simulated per host second (ticks/s) ((Tick/Second))
hostMemory                                    8837680                       # Number of bytes of host memory used (Byte)
simInsts                                       165413                       # Number of instructions simulated (Count)
simOps                                         282999                       # Number of ops (including micro ops) simulated (Count)
hostInstRate                                    35886                       # Simulator instruction rate (inst/s) ((Count/Second))
hostOpRate                                      61396                       # Simulator op (including micro ops) rate (op/s) ((Count/Second))
board.cache_hierarchy.cc_l2cache.demandHits::cache_hierarchy.l1dcaches0.prefetcher           23                       # number of demand (read+write) hits (Count)
board.cache_hierarchy.cc_l2cache.demandHits::cache_hierarchy.l1dcaches5.prefetcher            2                       # number of demand (read+write) hits (Count)
board.cache_hierarchy.cc_l2cache.demandHits::processor.cores0.core.inst           40                       # number of demand (read+write) hits (Count)
board.cache_hierarchy.cc_l2cache.demandHits::processor.cores0.core.data           66                       # number of demand (read+write) hits (Count)
board.cache_hierarchy.cc_l2cache.demandHits::processor.cores1.core.inst           20                       # number of demand (read+write) hits (Count)
board.cache_hierarchy.cc_l2cache.demandHits::processor.cores1.core.data            3                       # number of demand (read+write) hits (Count)
board.cache_hierarchy.cc_l2cache.demandHits::processor.cores2.core.inst           33                       # number of demand (read+write) hits (Count)
board.cache_hierarchy.cc_l2cache.demandHits::processor.cores2.core.data            4                       # number of demand (read+write) hits (Count)
board.cache_hierarchy.cc_l2cache.demandHits::processor.cores3.core.inst           36                       # number of demand (read+write) hits (Count)
board.cache_hierarchy.cc_l2cache.demandHits::processor.cores3.core.data            3                       # number of demand (read+write) hits (Count)
board.cache_hierarchy.cc_l2cache.demandHits::processor.cores4.core.inst           38                       # number of demand (read+write) hits (Count)
board.cache_hierarchy.cc_l2cache.demandHits::processor.cores4.core.data            3                       # number of demand (read+write) hits (Count)
board.cache_hierarchy.cc_l2cache.demandHits::processor.cores5.core.inst           38                       # number of demand (read+write) hits (Count)
board.cache_hierarchy.cc_l2cache.demandHits::processor.cores5.core.data            4                       # number of demand (read+write) hits (Count)
board.cache_hierarchy.cc_l2cache.demandHits::processor.cores6.core.inst           38                       # number of demand (read+write) hits (Count)
board.cache_hierarchy.cc_l2cache.demandHits::processor.cores6.core.data            4                       # number of demand (read+write) hits (Count)
board.cache_hierarchy.cc_l2cache.demandHits::processor.cores7.core.inst           38                       # number of demand (read+write) hits (Count)
board.cache_hierarchy.cc_l2cache.demandHits::processor.cores7.core.data            6                       # number of demand (read+write) hits (Count)
board.cache_hierarchy.cc_l2cache.demandHits::total          399                       # number of demand (read+write) hits (Count)
board.cache_hierarchy.cc_l2cache.overallHits::cache_hierarchy.l1dcaches0.prefetcher           23                       # number of overall hits (Count)
board.cache_hierarchy.cc_l2cache.overallHits::cache_hierarchy.l1dcaches5.prefetcher            2                       # number of overall hits (Count)
board.cache_hierarchy.cc_l2cache.overallHits::processor.cores0.core.inst           40                       # number of overall hits (Count)
board.cache_hierarchy.cc_l2cache.overallHits::processor.cores0.core.data           66                       # number of overall hits (Count)
board.cache_hierarchy.cc_l2cache.overallHits::processor.cores1.core.inst           20                       # number of overall hits (Count)
board.cache_hierarchy.cc_l2cache.overallHits::processor.cores1.core.data            3                       # number of overall hits (Count)
board.cache_hierarchy.cc_l2cache.overallHits::processor.cores2.core.inst           33                       # number of overall hits (Count)
board.cache_hierarchy.cc_l2cache.overallHits::processor.cores2.core.data            4                       # number of overall hits (Count)
board.cache_hierarchy.cc_l2cache.overallHits::processor.cores3.core.inst           36                       # number of overall hits (Count)
board.cache_hierarchy.cc_l2cache.overallHits::processor.cores3.core.data            3                       # number of overall hits (Count)
board.cache_hierarchy.cc_l2cache.overallHits::processor.cores4.core.inst           38                       # number of overall hits (Count)
board.cache_hierarchy.cc_l2cache.overallHits::processor.cores4.core.data            3                       # number of overall hits (Count)
board.cache_hierarchy.cc_l2cache.overallHits::processor.cores5.core.inst           38                       # number of overall hits (Count)
board.cache_hierarchy.cc_l2cache.overallHits::processor.cores5.core.data            4                       # number of overall hits (Count)
board.cache_hierarchy.cc_l2cache.overallHits::processor.cores6.core.inst           38                       # number of overall hits (Count)
board.cache_hierarchy.cc_l2cache.overallHits::processor.cores6.core.data            4                       # number of overall hits (Count)
board.cache_hierarchy.cc_l2cache.overallHits::processor.cores7.core.inst           38                       # number of overall hits (Count)
board.cache_hierarchy.cc_l2cache.overallHits::processor.cores7.core.data            6                       # number of overall hits (Count)
board.cache_hierarchy.cc_l2cache.overallHits::total          399                       # number of overall hits (Count)
board.cache_hierarchy.cc_l2cache.demandMisses::cache_hierarchy.l1dcaches0.prefetcher          105                       # number of demand (read+write) misses (Count)
board.cache_hierarchy.cc_l2cache.demandMisses::cache_hierarchy.l1dcaches7.prefetcher            1                       # number of demand (read+write) misses (Count)
board.cache_hierarchy.cc_l2cache.demandMisses::processor.cores0.core.inst          957                       # number of demand (read+write) misses (Count)
board.cache_hierarchy.cc_l2cache.demandMisses::processor.cores0.core.data          469                       # number of demand (read+write) misses (Count)
board.cache_hierarchy.cc_l2cache.demandMisses::processor.cores1.core.inst           21                       # number of demand (read+write) misses (Count)
board.cache_hierarchy.cc_l2cache.demandMisses::processor.cores1.core.data            6                       # number of demand (read+write) misses (Count)
board.cache_hierarchy.cc_l2cache.demandMisses::processor.cores2.core.inst            7                       # number of demand (read+write) misses (Count)
board.cache_hierarchy.cc_l2cache.demandMisses::processor.cores2.core.data            7                       # number of demand (read+write) misses (Count)
board.cache_hierarchy.cc_l2cache.demandMisses::processor.cores3.core.inst            4                       # number of demand (read+write) misses (Count)
board.cache_hierarchy.cc_l2cache.demandMisses::processor.cores3.core.data            6                       # number of demand (read+write) misses (Count)
board.cache_hierarchy.cc_l2cache.demandMisses::processor.cores4.core.inst            2                       # number of demand (read+write) misses (Count)
board.cache_hierarchy.cc_l2cache.demandMisses::processor.cores4.core.data            6                       # number of demand (read+write) misses (Count)
board.cache_hierarchy.cc_l2cache.demandMisses::processor.cores5.core.inst            2                       # number of demand (read+write) misses (Count)
board.cache_hierarchy.cc_l2cache.demandMisses::processor.cores5.core.data            6                       # number of demand (read+write) misses (Count)
board.cache_hierarchy.cc_l2cache.demandMisses::processor.cores6.core.inst            2                       # number of demand (read+write) misses (Count)
board.cache_hierarchy.cc_l2cache.demandMisses::processor.cores6.core.data            6                       # number of demand (read+write) misses (Count)
board.cache_hierarchy.cc_l2cache.demandMisses::processor.cores7.core.inst            3                       # number of demand (read+write) misses (Count)
board.cache_hierarchy.cc_l2cache.demandMisses::processor.cores7.core.data            6                       # number of demand (read+write) misses (Count)
board.cache_hierarchy.cc_l2cache.demandMisses::total         1616                       # number of demand (read+write) misses (Count)
board.cache_hierarchy.cc_l2cache.overallMisses::cache_hierarchy.l1dcaches0.prefetcher          105                       # number of overall misses (Count)
board.cache_hierarchy.cc_l2cache.overallMisses::cache_hierarchy.l1dcaches7.prefetcher            1                       # number of overall misses (Count)
board.cache_hierarchy.cc_l2cache.overallMisses::processor.cores0.core.inst          957                       # number of overall misses (Count)
board.cache_hierarchy.cc_l2cache.overallMisses::processor.cores0.core.data          469                       # number of overall misses (Count)
board.cache_hierarchy.cc_l2cache.overallMisses::processor.cores1.core.inst           21                       # number of overall misses (Count)
board.cache_hierarchy.cc_l2cache.overallMisses::processor.cores1.core.data            6                       # number of overall misses (Count)
board.cache_hierarchy.cc_l2cache.overallMisses::processor.cores2.core.inst            7                       # number of overall misses (Count)
board.cache_hierarchy.cc_l2cache.overallMisses::processor.cores2.core.data            7                       # number of overall misses (Count)
board.cache_hierarchy.cc_l2cache.overallMisses::processor.cores3.core.inst            4                       # number of overall misses (Count)
board.cache_hierarchy.cc_l2cache.overallMisses::processor.cores3.core.data            6                       # number of overall misses (Count)
board.cache_hierarchy.cc_l2cache.overallMisses::processor.cores4.core.inst            2                       # number of overall misses (Count)
board.cache_hierarchy.cc_l2cache.overallMisses::processor.cores4.core.data            6                       # number of overall misses (Count)
board.cache_hierarchy.cc_l2cache.overallMisses::processor.cores5.core.inst            2                       # number of overall misses (Count)
board.cache_hierarchy.cc_l2cache.overallMisses::processor.cores5.core.data            6                       # number of overall misses (Count)
board.cache_hierarchy.cc_l2cache.overallMisses::processor.cores6.core.inst            2                       # number of overall misses (Count)
board.cache_hierarchy.cc_l2cache.overallMisses::processor.cores6.core.data            6                       # number of overall misses (Count)
board.cache_hierarchy.cc_l2cache.overallMisses::processor.cores7.core.inst            3                       # number of overall misses (Count)
board.cache_hierarchy.cc_l2cache.overallMisses::processor.cores7.core.data            6                       # number of overall misses (Count)
board.cache_hierarchy.cc_l2cache.overallMisses::total         1616                       # number of overall misses (Count)
board.cache_hierarchy.cc_l2cache.demandMissLatency::cache_hierarchy.l1dcaches0.prefetcher      7817813                       # number of demand (read+write) miss ticks (Tick)
board.cache_hierarchy.cc_l2cache.demandMissLatency::cache_hierarchy.l1dcaches7.prefetcher        73593                       # number of demand (read+write) miss ticks (Tick)
board.cache_hierarchy.cc_l2cache.demandMissLatency::processor.cores0.core.inst     54614997                       # number of demand (read+write) miss ticks (Tick)
board.cache_hierarchy.cc_l2cache.demandMissLatency::processor.cores0.core.data     28574064                       # number of demand (read+write) miss ticks (Tick)
board.cache_hierarchy.cc_l2cache.demandMissLatency::processor.cores1.core.inst      1096902                       # number of demand (read+write) miss ticks (Tick)
board.cache_hierarchy.cc_l2cache.demandMissLatency::processor.cores1.core.data       401598                       # number of demand (read+write) miss ticks (Tick)
board.cache_hierarchy.cc_l2cache.demandMissLatency::processor.cores2.core.inst       381951                       # number of demand (read+write) miss ticks (Tick)
board.cache_hierarchy.cc_l2cache.demandMissLatency::processor.cores2.core.data       416916                       # number of demand (read+write) miss ticks (Tick)
board.cache_hierarchy.cc_l2cache.demandMissLatency::processor.cores3.core.inst       190476                       # number of demand (read+write) miss ticks (Tick)
board.cache_hierarchy.cc_l2cache.demandMissLatency::processor.cores3.core.data       310689                       # number of demand (read+write) miss ticks (Tick)
board.cache_hierarchy.cc_l2cache.demandMissLatency::processor.cores4.core.inst        69930                       # number of demand (read+write) miss ticks (Tick)
board.cache_hierarchy.cc_l2cache.demandMissLatency::processor.cores4.core.data       303363                       # number of demand (read+write) miss ticks (Tick)
board.cache_hierarchy.cc_l2cache.demandMissLatency::processor.cores5.core.inst        75591                       # number of demand (read+write) miss ticks (Tick)
board.cache_hierarchy.cc_l2cache.demandMissLatency::processor.cores5.core.data       291375                       # number of demand (read+write) miss ticks (Tick)
board.cache_hierarchy.cc_l2cache.demandMissLatency::processor.cores6.core.inst        62271                       # number of demand (read+write) miss ticks (Tick)
board.cache_hierarchy.cc_l2cache.demandMissLatency::processor.cores6.core.data       317682                       # number of demand (read+write) miss ticks (Tick)
board.cache_hierarchy.cc_l2cache.demandMissLatency::processor.cores7.core.inst       152514                       # number of demand (read+write) miss ticks (Tick)
board.cache_hierarchy.cc_l2cache.demandMissLatency::processor.cores7.core.data       282717                       # number of demand (read+write) miss ticks (Tick)
board.cache_hierarchy.cc_l2cache.demandMissLatency::total     95434442                       # number of demand (read+write) miss ticks (Tick)
board.cache_hierarchy.cc_l2cache.overallMissLatency::cache_hierarchy.l1dcaches0.prefetcher      7817813                       # number of overall miss ticks (Tick)
board.cache_hierarchy.cc_l2cache.overallMissLatency::cache_hierarchy.l1dcaches7.prefetcher        73593                       # number of overall miss ticks (Tick)
board.cache_hierarchy.cc_l2cache.overallMissLatency::processor.cores0.core.inst     54614997                       # number of overall miss ticks (Tick)
board.cache_hierarchy.cc_l2cache.overallMissLatency::processor.cores0.core.data     28574064                       # number of overall miss ticks (Tick)
board.cache_hierarchy.cc_l2cache.overallMissLatency::processor.cores1.core.inst      1096902                       # number of overall miss ticks (Tick)
board.cache_hierarchy.cc_l2cache.overallMissLatency::processor.cores1.core.data       401598                       # number of overall miss ticks (Tick)
board.cache_hierarchy.cc_l2cache.overallMissLatency::processor.cores2.core.inst       381951                       # number of overall miss ticks (Tick)
board.cache_hierarchy.cc_l2cache.overallMissLatency::processor.cores2.core.data       416916                       # number of overall miss ticks (Tick)
board.cache_hierarchy.cc_l2cache.overallMissLatency::processor.cores3.core.inst       190476                       # number of overall miss ticks (Tick)
board.cache_hierarchy.cc_l2cache.overallMissLatency::processor.cores3.core.data       310689                       # number of overall miss ticks (Tick)
board.cache_hierarchy.cc_l2cache.overallMissLatency::processor.cores4.core.inst        69930                       # number of overall miss ticks (Tick)
board.cache_hierarchy.cc_l2cache.overallMissLatency::processor.cores4.core.data       303363                       # number of overall miss ticks (Tick)
board.cache_hierarchy.cc_l2cache.overallMissLatency::processor.cores5.core.inst        75591                       # number of overall miss ticks (Tick)
board.cache_hierarchy.cc_l2cache.overallMissLatency::processor.cores5.core.data       291375                       # number of overall miss ticks (Tick)
board.cache_hierarchy.cc_l2cache.overallMissLatency::processor.cores6.core.inst        62271                       # number of overall miss ticks (Tick)
board.cache_hierarchy.cc_l2cache.overallMissLatency::processor.cores6.core.data       317682                       # number of overall miss ticks (Tick)
board.cache_hierarchy.cc_l2cache.overallMissLatency::processor.cores7.core.inst       152514                       # number of overall miss ticks (Tick)
board.cache_hierarchy.cc_l2cache.overallMissLatency::processor.cores7.core.data       282717                       # number of overall miss ticks (Tick)
board.cache_hierarchy.cc_l2cache.overallMissLatency::total     95434442                       # number of overall miss ticks (Tick)
board.cache_hierarchy.cc_l2cache.demandAccesses::cache_hierarchy.l1dcaches0.prefetcher          128                       # number of demand (read+write) accesses (Count)
board.cache_hierarchy.cc_l2cache.demandAccesses::cache_hierarchy.l1dcaches5.prefetcher            2                       # number of demand (read+write) accesses (Count)
board.cache_hierarchy.cc_l2cache.demandAccesses::cache_hierarchy.l1dcaches7.prefetcher            1                       # number of demand (read+write) accesses (Count)
board.cache_hierarchy.cc_l2cache.demandAccesses::processor.cores0.core.inst          997                       # number of demand (read+write) accesses (Count)
board.cache_hierarchy.cc_l2cache.demandAccesses::processor.cores0.core.data          535                       # number of demand (read+write) accesses (Count)
board.cache_hierarchy.cc_l2cache.demandAccesses::processor.cores1.core.inst           41                       # number of demand (read+write) accesses (Count)
board.cache_hierarchy.cc_l2cache.demandAccesses::processor.cores1.core.data            9                       # number of demand (read+write) accesses (Count)
board.cache_hierarchy.cc_l2cache.demandAccesses::processor.cores2.core.inst           40                       # number of demand (read+write) accesses (Count)
board.cache_hierarchy.cc_l2cache.demandAccesses::processor.cores2.core.data           11                       # number of demand (read+write) accesses (Count)
board.cache_hierarchy.cc_l2cache.demandAccesses::processor.cores3.core.inst           40                       # number of demand (read+write) accesses (Count)
board.cache_hierarchy.cc_l2cache.demandAccesses::processor.cores3.core.data            9                       # number of demand (read+write) accesses (Count)
board.cache_hierarchy.cc_l2cache.demandAccesses::processor.cores4.core.inst           40                       # number of demand (read+write) accesses (Count)
board.cache_hierarchy.cc_l2cache.demandAccesses::processor.cores4.core.data            9                       # number of demand (read+write) accesses (Count)
board.cache_hierarchy.cc_l2cache.demandAccesses::processor.cores5.core.inst           40                       # number of demand (read+write) accesses (Count)
board.cache_hierarchy.cc_l2cache.demandAccesses::processor.cores5.core.data           10                       # number of demand (read+write) accesses (Count)
board.cache_hierarchy.cc_l2cache.demandAccesses::processor.cores6.core.inst           40                       # number of demand (read+write) accesses (Count)
board.cache_hierarchy.cc_l2cache.demandAccesses::processor.cores6.core.data           10                       # number of demand (read+write) accesses (Count)
board.cache_hierarchy.cc_l2cache.demandAccesses::processor.cores7.core.inst           41                       # number of demand (read+write) accesses (Count)
board.cache_hierarchy.cc_l2cache.demandAccesses::processor.cores7.core.data           12                       # number of demand (read+write) accesses (Count)
board.cache_hierarchy.cc_l2cache.demandAccesses::total         2015                       # number of demand (read+write) accesses (Count)
board.cache_hierarchy.cc_l2cache.overallAccesses::cache_hierarchy.l1dcaches0.prefetcher          128                       # number of overall (read+write) accesses (Count)
board.cache_hierarchy.cc_l2cache.overallAccesses::cache_hierarchy.l1dcaches5.prefetcher            2                       # number of overall (read+write) accesses (Count)
board.cache_hierarchy.cc_l2cache.overallAccesses::cache_hierarchy.l1dcaches7.prefetcher            1                       # number of overall (read+write) accesses (Count)
board.cache_hierarchy.cc_l2cache.overallAccesses::processor.cores0.core.inst          997                       # number of overall (read+write) accesses (Count)
board.cache_hierarchy.cc_l2cache.overallAccesses::processor.cores0.core.data          535                       # number of overall (read+write) accesses (Count)
board.cache_hierarchy.cc_l2cache.overallAccesses::processor.cores1.core.inst           41                       # number of overall (read+write) accesses (Count)
board.cache_hierarchy.cc_l2cache.overallAccesses::processor.cores1.core.data            9                       # number of overall (read+write) accesses (Count)
board.cache_hierarchy.cc_l2cache.overallAccesses::processor.cores2.core.inst           40                       # number of overall (read+write) accesses (Count)
board.cache_hierarchy.cc_l2cache.overallAccesses::processor.cores2.core.data           11                       # number of overall (read+write) accesses (Count)
board.cache_hierarchy.cc_l2cache.overallAccesses::processor.cores3.core.inst           40                       # number of overall (read+write) accesses (Count)
board.cache_hierarchy.cc_l2cache.overallAccesses::processor.cores3.core.data            9                       # number of overall (read+write) accesses (Count)
board.cache_hierarchy.cc_l2cache.overallAccesses::processor.cores4.core.inst           40                       # number of overall (read+write) accesses (Count)
board.cache_hierarchy.cc_l2cache.overallAccesses::processor.cores4.core.data            9                       # number of overall (read+write) accesses (Count)
board.cache_hierarchy.cc_l2cache.overallAccesses::processor.cores5.core.inst           40                       # number of overall (read+write) accesses (Count)
board.cache_hierarchy.cc_l2cache.overallAccesses::processor.cores5.core.data           10                       # number of overall (read+write) accesses (Count)
board.cache_hierarchy.cc_l2cache.overallAccesses::processor.cores6.core.inst           40                       # number of overall (read+write) accesses (Count)
board.cache_hierarchy.cc_l2cache.overallAccesses::processor.cores6.core.data           10                       # number of overall (read+write) accesses (Count)
board.cache_hierarchy.cc_l2cache.overallAccesses::processor.cores7.core.inst           41                       # number of overall (read+write) accesses (Count)
board.cache_hierarchy.cc_l2cache.overallAccesses::processor.cores7.core.data           12                       # number of overall (read+write) accesses (Count)
board.cache_hierarchy.cc_l2cache.overallAccesses::total         2015                       # number of overall (read+write) accesses (Count)
board.cache_hierarchy.cc_l2cache.demandMissRate::cache_hierarchy.l1dcaches0.prefetcher     0.820312                       # miss rate for demand accesses (Ratio)
board.cache_hierarchy.cc_l2cache.demandMissRate::cache_hierarchy.l1dcaches7.prefetcher            1                       # miss rate for demand accesses (Ratio)
board.cache_hierarchy.cc_l2cache.demandMissRate::processor.cores0.core.inst     0.959880                       # miss rate for demand accesses (Ratio)
board.cache_hierarchy.cc_l2cache.demandMissRate::processor.cores0.core.data     0.876636                       # miss rate for demand accesses (Ratio)
board.cache_hierarchy.cc_l2cache.demandMissRate::processor.cores1.core.inst     0.512195                       # miss rate for demand accesses (Ratio)
board.cache_hierarchy.cc_l2cache.demandMissRate::processor.cores1.core.data     0.666667                       # miss rate for demand accesses (Ratio)
board.cache_hierarchy.cc_l2cache.demandMissRate::processor.cores2.core.inst     0.175000                       # miss rate for demand accesses (Ratio)
board.cache_hierarchy.cc_l2cache.demandMissRate::processor.cores2.core.data     0.636364                       # miss rate for demand accesses (Ratio)
board.cache_hierarchy.cc_l2cache.demandMissRate::processor.cores3.core.inst     0.100000                       # miss rate for demand accesses (Ratio)
board.cache_hierarchy.cc_l2cache.demandMissRate::processor.cores3.core.data     0.666667                       # miss rate for demand accesses (Ratio)
board.cache_hierarchy.cc_l2cache.demandMissRate::processor.cores4.core.inst     0.050000                       # miss rate for demand accesses (Ratio)
board.cache_hierarchy.cc_l2cache.demandMissRate::processor.cores4.core.data     0.666667                       # miss rate for demand accesses (Ratio)
board.cache_hierarchy.cc_l2cache.demandMissRate::processor.cores5.core.inst     0.050000                       # miss rate for demand accesses (Ratio)
board.cache_hierarchy.cc_l2cache.demandMissRate::processor.cores5.core.data     0.600000                       # miss rate for demand accesses (Ratio)
board.cache_hierarchy.cc_l2cache.demandMissRate::processor.cores6.core.inst     0.050000                       # miss rate for demand accesses (Ratio)
board.cache_hierarchy.cc_l2cache.demandMissRate::processor.cores6.core.data     0.600000                       # miss rate for demand accesses (Ratio)
board.cache_hierarchy.cc_l2cache.demandMissRate::processor.cores7.core.inst     0.073171                       # miss rate for demand accesses (Ratio)
board.cache_hierarchy.cc_l2cache.demandMissRate::processor.cores7.core.data     0.500000                       # miss rate for demand accesses (Ratio)
board.cache_hierarchy.cc_l2cache.demandMissRate::total     0.801985                       # miss rate for demand accesses (Ratio)
board.cache_hierarchy.cc_l2cache.overallMissRate::cache_hierarchy.l1dcaches0.prefetcher     0.820312                       # miss rate for overall accesses (Ratio)
board.cache_hierarchy.cc_l2cache.overallMissRate::cache_hierarchy.l1dcaches7.prefetcher            1                       # miss rate for overall accesses (Ratio)
board.cache_hierarchy.cc_l2cache.overallMissRate::processor.cores0.core.inst     0.959880                       # miss rate for overall accesses (Ratio)
board.cache_hierarchy.cc_l2cache.overallMissRate::processor.cores0.core.data     0.876636                       # miss rate for overall accesses (Ratio)
board.cache_hierarchy.cc_l2cache.overallMissRate::processor.cores1.core.inst     0.512195                       # miss rate for overall accesses (Ratio)
board.cache_hierarchy.cc_l2cache.overallMissRate::processor.cores1.core.data     0.666667                       # miss rate for overall accesses (Ratio)
board.cache_hierarchy.cc_l2cache.overallMissRate::processor.cores2.core.inst     0.175000                       # miss rate for overall accesses (Ratio)
board.cache_hierarchy.cc_l2cache.overallMissRate::processor.cores2.core.data     0.636364                       # miss rate for overall accesses (Ratio)
board.cache_hierarchy.cc_l2cache.overallMissRate::processor.cores3.core.inst     0.100000                       # miss rate for overall accesses (Ratio)
board.cache_hierarchy.cc_l2cache.overallMissRate::processor.cores3.core.data     0.666667                       # miss rate for overall accesses (Ratio)
board.cache_hierarchy.cc_l2cache.overallMissRate::processor.cores4.core.inst     0.050000                       # miss rate for overall accesses (Ratio)
board.cache_hierarchy.cc_l2cache.overallMissRate::processor.cores4.core.data     0.666667                       # miss rate for overall accesses (Ratio)
board.cache_hierarchy.cc_l2cache.overallMissRate::processor.cores5.core.inst     0.050000                       # miss rate for overall accesses (Ratio)
board.cache_hierarchy.cc_l2cache.overallMissRate::processor.cores5.core.data     0.600000                       # miss rate for overall accesses (Ratio)
board.cache_hierarchy.cc_l2cache.overallMissRate::processor.cores6.core.inst     0.050000                       # miss rate for overall accesses (Ratio)
board.cache_hierarchy.cc_l2cache.overallMissRate::processor.cores6.core.data     0.600000                       # miss rate for overall accesses (Ratio)
board.cache_hierarchy.cc_l2cache.overallMissRate::processor.cores7.core.inst     0.073171                       # miss rate for overall accesses (Ratio)
board.cache_hierarchy.cc_l2cache.overallMissRate::processor.cores7.core.data     0.500000                       # miss rate for overall accesses (Ratio)
board.cache_hierarchy.cc_l2cache.overallMissRate::total     0.801985                       # miss rate for overall accesses (Ratio)
board.cache_hierarchy.cc_l2cache.demandAvgMissLatency::cache_hierarchy.l1dcaches0.prefetcher 74455.361905                       # average overall miss latency in ticks ((Tick/Count))
board.cache_hierarchy.cc_l2cache.demandAvgMissLatency::cache_hierarchy.l1dcaches7.prefetcher        73593                       # average overall miss latency in ticks ((Tick/Count))
board.cache_hierarchy.cc_l2cache.demandAvgMissLatency::processor.cores0.core.inst 57068.962382                       # average overall miss latency in ticks ((Tick/Count))
board.cache_hierarchy.cc_l2cache.demandAvgMissLatency::processor.cores0.core.data 60925.509595                       # average overall miss latency in ticks ((Tick/Count))
board.cache_hierarchy.cc_l2cache.demandAvgMissLatency::processor.cores1.core.inst 52233.428571                       # average overall miss latency in ticks ((Tick/Count))
board.cache_hierarchy.cc_l2cache.demandAvgMissLatency::processor.cores1.core.data        66933                       # average overall miss latency in ticks ((Tick/Count))
board.cache_hierarchy.cc_l2cache.demandAvgMissLatency::processor.cores2.core.inst 54564.428571                       # average overall miss latency in ticks ((Tick/Count))
board.cache_hierarchy.cc_l2cache.demandAvgMissLatency::processor.cores2.core.data 59559.428571                       # average overall miss latency in ticks ((Tick/Count))
board.cache_hierarchy.cc_l2cache.demandAvgMissLatency::processor.cores3.core.inst        47619                       # average overall miss latency in ticks ((Tick/Count))
board.cache_hierarchy.cc_l2cache.demandAvgMissLatency::processor.cores3.core.data 51781.500000                       # average overall miss latency in ticks ((Tick/Count))
board.cache_hierarchy.cc_l2cache.demandAvgMissLatency::processor.cores4.core.inst        34965                       # average overall miss latency in ticks ((Tick/Count))
board.cache_hierarchy.cc_l2cache.demandAvgMissLatency::processor.cores4.core.data 50560.500000                       # average overall miss latency in ticks ((Tick/Count))
board.cache_hierarchy.cc_l2cache.demandAvgMissLatency::processor.cores5.core.inst 37795.500000                       # average overall miss latency in ticks ((Tick/Count))
board.cache_hierarchy.cc_l2cache.demandAvgMissLatency::processor.cores5.core.data 48562.500000                       # average overall miss latency in ticks ((Tick/Count))
board.cache_hierarchy.cc_l2cache.demandAvgMissLatency::processor.cores6.core.inst 31135.500000                       # average overall miss latency in ticks ((Tick/Count))
board.cache_hierarchy.cc_l2cache.demandAvgMissLatency::processor.cores6.core.data        52947                       # average overall miss latency in ticks ((Tick/Count))
board.cache_hierarchy.cc_l2cache.demandAvgMissLatency::processor.cores7.core.inst        50838                       # average overall miss latency in ticks ((Tick/Count))
board.cache_hierarchy.cc_l2cache.demandAvgMissLatency::processor.cores7.core.data 47119.500000                       # average overall miss latency in ticks ((Tick/Count))
board.cache_hierarchy.cc_l2cache.demandAvgMissLatency::total 59055.966584                       # average overall miss latency in ticks ((Tick/Count))
board.cache_hierarchy.cc_l2cache.overallAvgMissLatency::cache_hierarchy.l1dcaches0.prefetcher 74455.361905                       # average overall miss latency ((Tick/Count))
board.cache_hierarchy.cc_l2cache.overallAvgMissLatency::cache_hierarchy.l1dcaches7.prefetcher        73593                       # average overall miss latency ((Tick/Count))
board.cache_hierarchy.cc_l2cache.overallAvgMissLatency::processor.cores0.core.inst 57068.962382                       # average overall miss latency ((Tick/Count))
board.cache_hierarchy.cc_l2cache.overallAvgMissLatency::processor.cores0.core.data 60925.509595                       # average overall miss latency ((Tick/Count))
board.cache_hierarchy.cc_l2cache.overallAvgMissLatency::processor.cores1.core.inst 52233.428571                       # average overall miss latency ((Tick/Count))
board.cache_hierarchy.cc_l2cache.overallAvgMissLatency::processor.cores1.core.data        66933                       # average overall miss latency ((Tick/Count))
board.cache_hierarchy.cc_l2cache.overallAvgMissLatency::processor.cores2.core.inst 54564.428571                       # average overall miss latency ((Tick/Count))
board.cache_hierarchy.cc_l2cache.overallAvgMissLatency::processor.cores2.core.data 59559.428571                       # average overall miss latency ((Tick/Count))
board.cache_hierarchy.cc_l2cache.overallAvgMissLatency::processor.cores3.core.inst        47619                       # average overall miss latency ((Tick/Count))
board.cache_hierarchy.cc_l2cache.overallAvgMissLatency::processor.cores3.core.data 51781.500000                       # average overall miss latency ((Tick/Count))
board.cache_hierarchy.cc_l2cache.overallAvgMissLatency::processor.cores4.core.inst        34965                       # average overall miss latency ((Tick/Count))
board.cache_hierarchy.cc_l2cache.overallAvgMissLatency::processor.cores4.core.data 50560.500000                       # average overall miss latency ((Tick/Count))
board.cache_hierarchy.cc_l2cache.overallAvgMissLatency::processor.cores5.core.inst 37795.500000                       # average overall miss latency ((Tick/Count))
board.cache_hierarchy.cc_l2cache.overallAvgMissLatency::processor.cores5.core.data 48562.500000                       # average overall miss latency ((Tick/Count))
board.cache_hierarchy.cc_l2cache.overallAvgMissLatency::processor.cores6.core.inst 31135.500000                       # average overall miss latency ((Tick/Count))
board.cache_hierarchy.cc_l2cache.overallAvgMissLatency::processor.cores6.core.data        52947                       # average overall miss latency ((Tick/Count))
board.cache_hierarchy.cc_l2cache.overallAvgMissLatency::processor.cores7.core.inst        50838                       # average overall miss latency ((Tick/Count))
board.cache_hierarchy.cc_l2cache.overallAvgMissLatency::processor.cores7.core.data 47119.500000                       # average overall miss latency ((Tick/Count))
board.cache_hierarchy.cc_l2cache.overallAvgMissLatency::total 59055.966584                       # average overall miss latency ((Tick/Count))
board.cache_hierarchy.cc_l2cache.blockedCycles::no_mshrs            0                       # number of cycles access was blocked (Cycle)
board.cache_hierarchy.cc_l2cache.blockedCycles::no_targets            0                       # number of cycles access was blocked (Cycle)
board.cache_hierarchy.cc_l2cache.blockedCauses::no_mshrs            0                       # number of times access was blocked (Count)
board.cache_hierarchy.cc_l2cache.blockedCauses::no_targets            0                       # number of times access was blocked (Count)
board.cache_hierarchy.cc_l2cache.avgBlocked::no_mshrs          nan                       # average number of cycles each access was blocked ((Cycle/Count))
board.cache_hierarchy.cc_l2cache.avgBlocked::no_targets          nan                       # average number of cycles each access was blocked ((Cycle/Count))
board.cache_hierarchy.cc_l2cache.demandMshrHits::cache_hierarchy.l1dcaches0.prefetcher           29                       # number of demand (read+write) MSHR hits (Count)
board.cache_hierarchy.cc_l2cache.demandMshrHits::processor.cores0.core.inst            1                       # number of demand (read+write) MSHR hits (Count)
board.cache_hierarchy.cc_l2cache.demandMshrHits::processor.cores0.core.data            1                       # number of demand (read+write) MSHR hits (Count)
board.cache_hierarchy.cc_l2cache.demandMshrHits::processor.cores1.core.inst            1                       # number of demand (read+write) MSHR hits (Count)
board.cache_hierarchy.cc_l2cache.demandMshrHits::processor.cores2.core.inst            2                       # number of demand (read+write) MSHR hits (Count)
board.cache_hierarchy.cc_l2cache.demandMshrHits::processor.cores3.core.inst            2                       # number of demand (read+write) MSHR hits (Count)
board.cache_hierarchy.cc_l2cache.demandMshrHits::processor.cores4.core.inst            2                       # number of demand (read+write) MSHR hits (Count)
board.cache_hierarchy.cc_l2cache.demandMshrHits::processor.cores5.core.inst            2                       # number of demand (read+write) MSHR hits (Count)
board.cache_hierarchy.cc_l2cache.demandMshrHits::processor.cores6.core.inst            2                       # number of demand (read+write) MSHR hits (Count)
board.cache_hierarchy.cc_l2cache.demandMshrHits::total           42                       # number of demand (read+write) MSHR hits (Count)
board.cache_hierarchy.cc_l2cache.overallMshrHits::cache_hierarchy.l1dcaches0.prefetcher           29                       # number of overall MSHR hits (Count)
board.cache_hierarchy.cc_l2cache.overallMshrHits::processor.cores0.core.inst            1                       # number of overall MSHR hits (Count)
board.cache_hierarchy.cc_l2cache.overallMshrHits::processor.cores0.core.data            1                       # number of overall MSHR hits (Count)
board.cache_hierarchy.cc_l2cache.overallMshrHits::processor.cores1.core.inst            1                       # number of overall MSHR hits (Count)
board.cache_hierarchy.cc_l2cache.overallMshrHits::processor.cores2.core.inst            2                       # number of overall MSHR hits (Count)
board.cache_hierarchy.cc_l2cache.overallMshrHits::processor.cores3.core.inst            2                       # number of overall MSHR hits (Count)
board.cache_hierarchy.cc_l2cache.overallMshrHits::processor.cores4.core.inst            2                       # number of overall MSHR hits (Count)
board.cache_hierarchy.cc_l2cache.overallMshrHits::processor.cores5.core.inst            2                       # number of overall MSHR hits (Count)
board.cache_hierarchy.cc_l2cache.overallMshrHits::processor.cores6.core.inst            2                       # number of overall MSHR hits (Count)
board.cache_hierarchy.cc_l2cache.overallMshrHits::total           42                       # number of overall MSHR hits (Count)
board.cache_hierarchy.cc_l2cache.demandMshrMisses::cache_hierarchy.l1dcaches0.prefetcher           76                       # number of demand (read+write) MSHR misses (Count)
board.cache_hierarchy.cc_l2cache.demandMshrMisses::cache_hierarchy.l1dcaches7.prefetcher            1                       # number of demand (read+write) MSHR misses (Count)
board.cache_hierarchy.cc_l2cache.demandMshrMisses::processor.cores0.core.inst          956                       # number of demand (read+write) MSHR misses (Count)
board.cache_hierarchy.cc_l2cache.demandMshrMisses::processor.cores0.core.data          468                       # number of demand (read+write) MSHR misses (Count)
board.cache_hierarchy.cc_l2cache.demandMshrMisses::processor.cores1.core.inst           20                       # number of demand (read+write) MSHR misses (Count)
board.cache_hierarchy.cc_l2cache.demandMshrMisses::processor.cores1.core.data            6                       # number of demand (read+write) MSHR misses (Count)
board.cache_hierarchy.cc_l2cache.demandMshrMisses::processor.cores2.core.inst            5                       # number of demand (read+write) MSHR misses (Count)
board.cache_hierarchy.cc_l2cache.demandMshrMisses::processor.cores2.core.data            7                       # number of demand (read+write) MSHR misses (Count)
board.cache_hierarchy.cc_l2cache.demandMshrMisses::processor.cores3.core.inst            2                       # number of demand (read+write) MSHR misses (Count)
board.cache_hierarchy.cc_l2cache.demandMshrMisses::processor.cores3.core.data            6                       # number of demand (read+write) MSHR misses (Count)
board.cache_hierarchy.cc_l2cache.demandMshrMisses::processor.cores4.core.data            6                       # number of demand (read+write) MSHR misses (Count)
board.cache_hierarchy.cc_l2cache.demandMshrMisses::processor.cores5.core.data            6                       # number of demand (read+write) MSHR misses (Count)
board.cache_hierarchy.cc_l2cache.demandMshrMisses::processor.cores6.core.data            6                       # number of demand (read+write) MSHR misses (Count)
board.cache_hierarchy.cc_l2cache.demandMshrMisses::processor.cores7.core.inst            3                       # number of demand (read+write) MSHR misses (Count)
board.cache_hierarchy.cc_l2cache.demandMshrMisses::processor.cores7.core.data            6                       # number of demand (read+write) MSHR misses (Count)
board.cache_hierarchy.cc_l2cache.demandMshrMisses::total         1574                       # number of demand (read+write) MSHR misses (Count)
board.cache_hierarchy.cc_l2cache.overallMshrMisses::cache_hierarchy.cc_l2cache.prefetcher          125                       # number of overall MSHR misses (Count)
board.cache_hierarchy.cc_l2cache.overallMshrMisses::cache_hierarchy.l1dcaches0.prefetcher           76                       # number of overall MSHR misses (Count)
board.cache_hierarchy.cc_l2cache.overallMshrMisses::cache_hierarchy.l1dcaches7.prefetcher            1                       # number of overall MSHR misses (Count)
board.cache_hierarchy.cc_l2cache.overallMshrMisses::processor.cores0.core.inst          956                       # number of overall MSHR misses (Count)
board.cache_hierarchy.cc_l2cache.overallMshrMisses::processor.cores0.core.data          468                       # number of overall MSHR misses (Count)
board.cache_hierarchy.cc_l2cache.overallMshrMisses::processor.cores1.core.inst           20                       # number of overall MSHR misses (Count)
board.cache_hierarchy.cc_l2cache.overallMshrMisses::processor.cores1.core.data            6                       # number of overall MSHR misses (Count)
board.cache_hierarchy.cc_l2cache.overallMshrMisses::processor.cores2.core.inst            5                       # number of overall MSHR misses (Count)
board.cache_hierarchy.cc_l2cache.overallMshrMisses::processor.cores2.core.data            7                       # number of overall MSHR misses (Count)
board.cache_hierarchy.cc_l2cache.overallMshrMisses::processor.cores3.core.inst            2                       # number of overall MSHR misses (Count)
board.cache_hierarchy.cc_l2cache.overallMshrMisses::processor.cores3.core.data            6                       # number of overall MSHR misses (Count)
board.cache_hierarchy.cc_l2cache.overallMshrMisses::processor.cores4.core.data            6                       # number of overall MSHR misses (Count)
board.cache_hierarchy.cc_l2cache.overallMshrMisses::processor.cores5.core.data            6                       # number of overall MSHR misses (Count)
board.cache_hierarchy.cc_l2cache.overallMshrMisses::processor.cores6.core.data            6                       # number of overall MSHR misses (Count)
board.cache_hierarchy.cc_l2cache.overallMshrMisses::processor.cores7.core.inst            3                       # number of overall MSHR misses (Count)
board.cache_hierarchy.cc_l2cache.overallMshrMisses::processor.cores7.core.data            6                       # number of overall MSHR misses (Count)
board.cache_hierarchy.cc_l2cache.overallMshrMisses::total         1699                       # number of overall MSHR misses (Count)
board.cache_hierarchy.cc_l2cache.demandMshrMissLatency::cache_hierarchy.l1dcaches0.prefetcher      6377606                       # number of demand (read+write) MSHR miss ticks (Tick)
board.cache_hierarchy.cc_l2cache.demandMshrMissLatency::cache_hierarchy.l1dcaches7.prefetcher        73260                       # number of demand (read+write) MSHR miss ticks (Tick)
board.cache_hierarchy.cc_l2cache.demandMshrMissLatency::processor.cores0.core.inst     54283662                       # number of demand (read+write) MSHR miss ticks (Tick)
board.cache_hierarchy.cc_l2cache.demandMshrMissLatency::processor.cores0.core.data     28282023                       # number of demand (read+write) MSHR miss ticks (Tick)
board.cache_hierarchy.cc_l2cache.demandMshrMissLatency::processor.cores1.core.inst      1078254                       # number of demand (read+write) MSHR miss ticks (Tick)
board.cache_hierarchy.cc_l2cache.demandMshrMissLatency::processor.cores1.core.data       399600                       # number of demand (read+write) MSHR miss ticks (Tick)
board.cache_hierarchy.cc_l2cache.demandMshrMissLatency::processor.cores2.core.inst       312021                       # number of demand (read+write) MSHR miss ticks (Tick)
board.cache_hierarchy.cc_l2cache.demandMshrMissLatency::processor.cores2.core.data       414585                       # number of demand (read+write) MSHR miss ticks (Tick)
board.cache_hierarchy.cc_l2cache.demandMshrMissLatency::processor.cores3.core.inst       119214                       # number of demand (read+write) MSHR miss ticks (Tick)
board.cache_hierarchy.cc_l2cache.demandMshrMissLatency::processor.cores3.core.data       308691                       # number of demand (read+write) MSHR miss ticks (Tick)
board.cache_hierarchy.cc_l2cache.demandMshrMissLatency::processor.cores4.core.data       301365                       # number of demand (read+write) MSHR miss ticks (Tick)
board.cache_hierarchy.cc_l2cache.demandMshrMissLatency::processor.cores5.core.data       289377                       # number of demand (read+write) MSHR miss ticks (Tick)
board.cache_hierarchy.cc_l2cache.demandMshrMissLatency::processor.cores6.core.data       315684                       # number of demand (read+write) MSHR miss ticks (Tick)
board.cache_hierarchy.cc_l2cache.demandMshrMissLatency::processor.cores7.core.inst       151515                       # number of demand (read+write) MSHR miss ticks (Tick)
board.cache_hierarchy.cc_l2cache.demandMshrMissLatency::processor.cores7.core.data       280719                       # number of demand (read+write) MSHR miss ticks (Tick)
board.cache_hierarchy.cc_l2cache.demandMshrMissLatency::total     92987576                       # number of demand (read+write) MSHR miss ticks (Tick)
board.cache_hierarchy.cc_l2cache.overallMshrMissLatency::cache_hierarchy.cc_l2cache.prefetcher      7581926                       # number of overall MSHR miss ticks (Tick)
board.cache_hierarchy.cc_l2cache.overallMshrMissLatency::cache_hierarchy.l1dcaches0.prefetcher      6377606                       # number of overall MSHR miss ticks (Tick)
board.cache_hierarchy.cc_l2cache.overallMshrMissLatency::cache_hierarchy.l1dcaches7.prefetcher        73260                       # number of overall MSHR miss ticks (Tick)
board.cache_hierarchy.cc_l2cache.overallMshrMissLatency::processor.cores0.core.inst     54283662                       # number of overall MSHR miss ticks (Tick)
board.cache_hierarchy.cc_l2cache.overallMshrMissLatency::processor.cores0.core.data     28282023                       # number of overall MSHR miss ticks (Tick)
board.cache_hierarchy.cc_l2cache.overallMshrMissLatency::processor.cores1.core.inst      1078254                       # number of overall MSHR miss ticks (Tick)
board.cache_hierarchy.cc_l2cache.overallMshrMissLatency::processor.cores1.core.data       399600                       # number of overall MSHR miss ticks (Tick)
board.cache_hierarchy.cc_l2cache.overallMshrMissLatency::processor.cores2.core.inst       312021                       # number of overall MSHR miss ticks (Tick)
board.cache_hierarchy.cc_l2cache.overallMshrMissLatency::processor.cores2.core.data       414585                       # number of overall MSHR miss ticks (Tick)
board.cache_hierarchy.cc_l2cache.overallMshrMissLatency::processor.cores3.core.inst       119214                       # number of overall MSHR miss ticks (Tick)
board.cache_hierarchy.cc_l2cache.overallMshrMissLatency::processor.cores3.core.data       308691                       # number of overall MSHR miss ticks (Tick)
board.cache_hierarchy.cc_l2cache.overallMshrMissLatency::processor.cores4.core.data       301365                       # number of overall MSHR miss ticks (Tick)
board.cache_hierarchy.cc_l2cache.overallMshrMissLatency::processor.cores5.core.data       289377                       # number of overall MSHR miss ticks (Tick)
board.cache_hierarchy.cc_l2cache.overallMshrMissLatency::processor.cores6.core.data       315684                       # number of overall MSHR miss ticks (Tick)
board.cache_hierarchy.cc_l2cache.overallMshrMissLatency::processor.cores7.core.inst       151515                       # number of overall MSHR miss ticks (Tick)
board.cache_hierarchy.cc_l2cache.overallMshrMissLatency::processor.cores7.core.data       280719                       # number of overall MSHR miss ticks (Tick)
board.cache_hierarchy.cc_l2cache.overallMshrMissLatency::total    100569502                       # number of overall MSHR miss ticks (Tick)
board.cache_hierarchy.cc_l2cache.demandMshrMissRate::cache_hierarchy.l1dcaches0.prefetcher     0.593750                       # mshr miss ratio for demand accesses (Ratio)
board.cache_hierarchy.cc_l2cache.demandMshrMissRate::cache_hierarchy.l1dcaches7.prefetcher            1                       # mshr miss ratio for demand accesses (Ratio)
board.cache_hierarchy.cc_l2cache.demandMshrMissRate::processor.cores0.core.inst     0.958877                       # mshr miss ratio for demand accesses (Ratio)
board.cache_hierarchy.cc_l2cache.demandMshrMissRate::processor.cores0.core.data     0.874766                       # mshr miss ratio for demand accesses (Ratio)
board.cache_hierarchy.cc_l2cache.demandMshrMissRate::processor.cores1.core.inst     0.487805                       # mshr miss ratio for demand accesses (Ratio)
board.cache_hierarchy.cc_l2cache.demandMshrMissRate::processor.cores1.core.data     0.666667                       # mshr miss ratio for demand accesses (Ratio)
board.cache_hierarchy.cc_l2cache.demandMshrMissRate::processor.cores2.core.inst     0.125000                       # mshr miss ratio for demand accesses (Ratio)
board.cache_hierarchy.cc_l2cache.demandMshrMissRate::processor.cores2.core.data     0.636364                       # mshr miss ratio for demand accesses (Ratio)
board.cache_hierarchy.cc_l2cache.demandMshrMissRate::processor.cores3.core.inst     0.050000                       # mshr miss ratio for demand accesses (Ratio)
board.cache_hierarchy.cc_l2cache.demandMshrMissRate::processor.cores3.core.data     0.666667                       # mshr miss ratio for demand accesses (Ratio)
board.cache_hierarchy.cc_l2cache.demandMshrMissRate::processor.cores4.core.data     0.666667                       # mshr miss ratio for demand accesses (Ratio)
board.cache_hierarchy.cc_l2cache.demandMshrMissRate::processor.cores5.core.data     0.600000                       # mshr miss ratio for demand accesses (Ratio)
board.cache_hierarchy.cc_l2cache.demandMshrMissRate::processor.cores6.core.data     0.600000                       # mshr miss ratio for demand accesses (Ratio)
board.cache_hierarchy.cc_l2cache.demandMshrMissRate::processor.cores7.core.inst     0.073171                       # mshr miss ratio for demand accesses (Ratio)
board.cache_hierarchy.cc_l2cache.demandMshrMissRate::processor.cores7.core.data     0.500000                       # mshr miss ratio for demand accesses (Ratio)
board.cache_hierarchy.cc_l2cache.demandMshrMissRate::total     0.781141                       # mshr miss ratio for demand accesses (Ratio)
board.cache_hierarchy.cc_l2cache.overallMshrMissRate::cache_hierarchy.cc_l2cache.prefetcher          inf                       # mshr miss ratio for overall accesses (Ratio)
board.cache_hierarchy.cc_l2cache.overallMshrMissRate::cache_hierarchy.l1dcaches0.prefetcher     0.593750                       # mshr miss ratio for overall accesses (Ratio)
board.cache_hierarchy.cc_l2cache.overallMshrMissRate::cache_hierarchy.l1dcaches7.prefetcher            1                       # mshr miss ratio for overall accesses (Ratio)
board.cache_hierarchy.cc_l2cache.overallMshrMissRate::processor.cores0.core.inst     0.958877                       # mshr miss ratio for overall accesses (Ratio)
board.cache_hierarchy.cc_l2cache.overallMshrMissRate::processor.cores0.core.data     0.874766                       # mshr miss ratio for overall accesses (Ratio)
board.cache_hierarchy.cc_l2cache.overallMshrMissRate::processor.cores1.core.inst     0.487805                       # mshr miss ratio for overall accesses (Ratio)
board.cache_hierarchy.cc_l2cache.overallMshrMissRate::processor.cores1.core.data     0.666667                       # mshr miss ratio for overall accesses (Ratio)
board.cache_hierarchy.cc_l2cache.overallMshrMissRate::processor.cores2.core.inst     0.125000                       # mshr miss ratio for overall accesses (Ratio)
board.cache_hierarchy.cc_l2cache.overallMshrMissRate::processor.cores2.core.data     0.636364                       # mshr miss ratio for overall accesses (Ratio)
board.cache_hierarchy.cc_l2cache.overallMshrMissRate::processor.cores3.core.inst     0.050000                       # mshr miss ratio for overall accesses (Ratio)
board.cache_hierarchy.cc_l2cache.overallMshrMissRate::processor.cores3.core.data     0.666667                       # mshr miss ratio for overall accesses (Ratio)
board.cache_hierarchy.cc_l2cache.overallMshrMissRate::processor.cores4.core.data     0.666667                       # mshr miss ratio for overall accesses (Ratio)
board.cache_hierarchy.cc_l2cache.overallMshrMissRate::processor.cores5.core.data     0.600000                       # mshr miss ratio for overall accesses (Ratio)
board.cache_hierarchy.cc_l2cache.overallMshrMissRate::processor.cores6.core.data     0.600000                       # mshr miss ratio for overall accesses (Ratio)
board.cache_hierarchy.cc_l2cache.overallMshrMissRate::processor.cores7.core.inst     0.073171                       # mshr miss ratio for overall accesses (Ratio)
board.cache_hierarchy.cc_l2cache.overallMshrMissRate::processor.cores7.core.data     0.500000                       # mshr miss ratio for overall accesses (Ratio)
board.cache_hierarchy.cc_l2cache.overallMshrMissRate::total     0.843176                       # mshr miss ratio for overall accesses (Ratio)
board.cache_hierarchy.cc_l2cache.demandAvgMshrMissLatency::cache_hierarchy.l1dcaches0.prefetcher 83915.868421                       # average overall mshr miss latency ((Tick/Count))
board.cache_hierarchy.cc_l2cache.demandAvgMshrMissLatency::cache_hierarchy.l1dcaches7.prefetcher        73260                       # average overall mshr miss latency ((Tick/Count))
board.cache_hierarchy.cc_l2cache.demandAvgMshrMissLatency::processor.cores0.core.inst 56782.073222                       # average overall mshr miss latency ((Tick/Count))
board.cache_hierarchy.cc_l2cache.demandAvgMshrMissLatency::processor.cores0.core.data 60431.673077                       # average overall mshr miss latency ((Tick/Count))
board.cache_hierarchy.cc_l2cache.demandAvgMshrMissLatency::processor.cores1.core.inst 53912.700000                       # average overall mshr miss latency ((Tick/Count))
board.cache_hierarchy.cc_l2cache.demandAvgMshrMissLatency::processor.cores1.core.data        66600                       # average overall mshr miss latency ((Tick/Count))
board.cache_hierarchy.cc_l2cache.demandAvgMshrMissLatency::processor.cores2.core.inst 62404.200000                       # average overall mshr miss latency ((Tick/Count))
board.cache_hierarchy.cc_l2cache.demandAvgMshrMissLatency::processor.cores2.core.data 59226.428571                       # average overall mshr miss latency ((Tick/Count))
board.cache_hierarchy.cc_l2cache.demandAvgMshrMissLatency::processor.cores3.core.inst        59607                       # average overall mshr miss latency ((Tick/Count))
board.cache_hierarchy.cc_l2cache.demandAvgMshrMissLatency::processor.cores3.core.data 51448.500000                       # average overall mshr miss latency ((Tick/Count))
board.cache_hierarchy.cc_l2cache.demandAvgMshrMissLatency::processor.cores4.core.data 50227.500000                       # average overall mshr miss latency ((Tick/Count))
board.cache_hierarchy.cc_l2cache.demandAvgMshrMissLatency::processor.cores5.core.data 48229.500000                       # average overall mshr miss latency ((Tick/Count))
board.cache_hierarchy.cc_l2cache.demandAvgMshrMissLatency::processor.cores6.core.data        52614                       # average overall mshr miss latency ((Tick/Count))
board.cache_hierarchy.cc_l2cache.demandAvgMshrMissLatency::processor.cores7.core.inst        50505                       # average overall mshr miss latency ((Tick/Count))
board.cache_hierarchy.cc_l2cache.demandAvgMshrMissLatency::processor.cores7.core.data 46786.500000                       # average overall mshr miss latency ((Tick/Count))
board.cache_hierarchy.cc_l2cache.demandAvgMshrMissLatency::total 59077.240152                       # average overall mshr miss latency ((Tick/Count))
board.cache_hierarchy.cc_l2cache.overallAvgMshrMissLatency::cache_hierarchy.cc_l2cache.prefetcher 60655.408000                       # average overall mshr miss latency ((Tick/Count))
board.cache_hierarchy.cc_l2cache.overallAvgMshrMissLatency::cache_hierarchy.l1dcaches0.prefetcher 83915.868421                       # average overall mshr miss latency ((Tick/Count))
board.cache_hierarchy.cc_l2cache.overallAvgMshrMissLatency::cache_hierarchy.l1dcaches7.prefetcher        73260                       # average overall mshr miss latency ((Tick/Count))
board.cache_hierarchy.cc_l2cache.overallAvgMshrMissLatency::processor.cores0.core.inst 56782.073222                       # average overall mshr miss latency ((Tick/Count))
board.cache_hierarchy.cc_l2cache.overallAvgMshrMissLatency::processor.cores0.core.data 60431.673077                       # average overall mshr miss latency ((Tick/Count))
board.cache_hierarchy.cc_l2cache.overallAvgMshrMissLatency::processor.cores1.core.inst 53912.700000                       # average overall mshr miss latency ((Tick/Count))
board.cache_hierarchy.cc_l2cache.overallAvgMshrMissLatency::processor.cores1.core.data        66600                       # average overall mshr miss latency ((Tick/Count))
board.cache_hierarchy.cc_l2cache.overallAvgMshrMissLatency::processor.cores2.core.inst 62404.200000                       # average overall mshr miss latency ((Tick/Count))
board.cache_hierarchy.cc_l2cache.overallAvgMshrMissLatency::processor.cores2.core.data 59226.428571                       # average overall mshr miss latency ((Tick/Count))
board.cache_hierarchy.cc_l2cache.overallAvgMshrMissLatency::processor.cores3.core.inst        59607                       # average overall mshr miss latency ((Tick/Count))
board.cache_hierarchy.cc_l2cache.overallAvgMshrMissLatency::processor.cores3.core.data 51448.500000                       # average overall mshr miss latency ((Tick/Count))
board.cache_hierarchy.cc_l2cache.overallAvgMshrMissLatency::processor.cores4.core.data 50227.500000                       # average overall mshr miss latency ((Tick/Count))
board.cache_hierarchy.cc_l2cache.overallAvgMshrMissLatency::processor.cores5.core.data 48229.500000                       # average overall mshr miss latency ((Tick/Count))
board.cache_hierarchy.cc_l2cache.overallAvgMshrMissLatency::processor.cores6.core.data        52614                       # average overall mshr miss latency ((Tick/Count))
board.cache_hierarchy.cc_l2cache.overallAvgMshrMissLatency::processor.cores7.core.inst        50505                       # average overall mshr miss latency ((Tick/Count))
board.cache_hierarchy.cc_l2cache.overallAvgMshrMissLatency::processor.cores7.core.data 46786.500000                       # average overall mshr miss latency ((Tick/Count))
board.cache_hierarchy.cc_l2cache.overallAvgMshrMissLatency::total 59193.350206                       # average overall mshr miss latency ((Tick/Count))
board.cache_hierarchy.cc_l2cache.replacements            0                       # number of replacements (Count)
board.cache_hierarchy.cc_l2cache.HardPFReq.mshrMisses::cache_hierarchy.cc_l2cache.prefetcher          125                       # number of HardPFReq MSHR misses (Count)
board.cache_hierarchy.cc_l2cache.HardPFReq.mshrMisses::total          125                       # number of HardPFReq MSHR misses (Count)
board.cache_hierarchy.cc_l2cache.HardPFReq.mshrMissLatency::cache_hierarchy.cc_l2cache.prefetcher      7581926                       # number of HardPFReq MSHR miss ticks (Tick)
board.cache_hierarchy.cc_l2cache.HardPFReq.mshrMissLatency::total      7581926                       # number of HardPFReq MSHR miss ticks (Tick)
board.cache_hierarchy.cc_l2cache.HardPFReq.mshrMissRate::cache_hierarchy.cc_l2cache.prefetcher          inf                       # mshr miss rate for HardPFReq accesses (Ratio)
board.cache_hierarchy.cc_l2cache.HardPFReq.mshrMissRate::total          inf                       # mshr miss rate for HardPFReq accesses (Ratio)
board.cache_hierarchy.cc_l2cache.HardPFReq.avgMshrMissLatency::cache_hierarchy.cc_l2cache.prefetcher 60655.408000                       # average HardPFReq mshr miss latency ((Tick/Count))
board.cache_hierarchy.cc_l2cache.HardPFReq.avgMshrMissLatency::total 60655.408000                       # average HardPFReq mshr miss latency ((Tick/Count))
board.cache_hierarchy.cc_l2cache.ReadExReq.hits::processor.cores0.core.data           45                       # number of ReadExReq hits (Count)
board.cache_hierarchy.cc_l2cache.ReadExReq.hits::total           45                       # number of ReadExReq hits (Count)
board.cache_hierarchy.cc_l2cache.ReadExReq.misses::processor.cores0.core.data          294                       # number of ReadExReq misses (Count)
board.cache_hierarchy.cc_l2cache.ReadExReq.misses::processor.cores1.core.data            5                       # number of ReadExReq misses (Count)
board.cache_hierarchy.cc_l2cache.ReadExReq.misses::processor.cores2.core.data            5                       # number of ReadExReq misses (Count)
board.cache_hierarchy.cc_l2cache.ReadExReq.misses::processor.cores3.core.data            5                       # number of ReadExReq misses (Count)
board.cache_hierarchy.cc_l2cache.ReadExReq.misses::processor.cores4.core.data            5                       # number of ReadExReq misses (Count)
board.cache_hierarchy.cc_l2cache.ReadExReq.misses::processor.cores5.core.data            5                       # number of ReadExReq misses (Count)
board.cache_hierarchy.cc_l2cache.ReadExReq.misses::processor.cores6.core.data            5                       # number of ReadExReq misses (Count)
board.cache_hierarchy.cc_l2cache.ReadExReq.misses::processor.cores7.core.data            5                       # number of ReadExReq misses (Count)
board.cache_hierarchy.cc_l2cache.ReadExReq.misses::total          329                       # number of ReadExReq misses (Count)
board.cache_hierarchy.cc_l2cache.ReadExReq.missLatency::processor.cores0.core.data     16889760                       # number of ReadExReq miss ticks (Tick)
board.cache_hierarchy.cc_l2cache.ReadExReq.missLatency::processor.cores1.core.data       284382                       # number of ReadExReq miss ticks (Tick)
board.cache_hierarchy.cc_l2cache.ReadExReq.missLatency::processor.cores2.core.data       297036                       # number of ReadExReq miss ticks (Tick)
board.cache_hierarchy.cc_l2cache.ReadExReq.missLatency::processor.cores3.core.data       264402                       # number of ReadExReq miss ticks (Tick)
board.cache_hierarchy.cc_l2cache.ReadExReq.missLatency::processor.cores4.core.data       257076                       # number of ReadExReq miss ticks (Tick)
board.cache_hierarchy.cc_l2cache.ReadExReq.missLatency::processor.cores5.core.data       245088                       # number of ReadExReq miss ticks (Tick)
board.cache_hierarchy.cc_l2cache.ReadExReq.missLatency::processor.cores6.core.data       271395                       # number of ReadExReq miss ticks (Tick)
board.cache_hierarchy.cc_l2cache.ReadExReq.missLatency::processor.cores7.core.data       236430                       # number of ReadExReq miss ticks (Tick)
board.cache_hierarchy.cc_l2cache.ReadExReq.missLatency::total     18745569                       # number of ReadExReq miss ticks (Tick)
board.cache_hierarchy.cc_l2cache.ReadExReq.accesses::processor.cores0.core.data          339                       # number of ReadExReq accesses(hits+misses) (Count)
board.cache_hierarchy.cc_l2cache.ReadExReq.accesses::processor.cores1.core.data            5                       # number of ReadExReq accesses(hits+misses) (Count)
board.cache_hierarchy.cc_l2cache.ReadExReq.accesses::processor.cores2.core.data            5                       # number of ReadExReq accesses(hits+misses) (Count)
board.cache_hierarchy.cc_l2cache.ReadExReq.accesses::processor.cores3.core.data            5                       # number of ReadExReq accesses(hits+misses) (Count)
board.cache_hierarchy.cc_l2cache.ReadExReq.accesses::processor.cores4.core.data            5                       # number of ReadExReq accesses(hits+misses) (Count)
board.cache_hierarchy.cc_l2cache.ReadExReq.accesses::processor.cores5.core.data            5                       # number of ReadExReq accesses(hits+misses) (Count)
board.cache_hierarchy.cc_l2cache.ReadExReq.accesses::processor.cores6.core.data            5                       # number of ReadExReq accesses(hits+misses) (Count)
board.cache_hierarchy.cc_l2cache.ReadExReq.accesses::processor.cores7.core.data            5                       # number of ReadExReq accesses(hits+misses) (Count)
board.cache_hierarchy.cc_l2cache.ReadExReq.accesses::total          374                       # number of ReadExReq accesses(hits+misses) (Count)
board.cache_hierarchy.cc_l2cache.ReadExReq.missRate::processor.cores0.core.data     0.867257                       # miss rate for ReadExReq accesses (Ratio)
board.cache_hierarchy.cc_l2cache.ReadExReq.missRate::processor.cores1.core.data            1                       # miss rate for ReadExReq accesses (Ratio)
board.cache_hierarchy.cc_l2cache.ReadExReq.missRate::processor.cores2.core.data            1                       # miss rate for ReadExReq accesses (Ratio)
board.cache_hierarchy.cc_l2cache.ReadExReq.missRate::processor.cores3.core.data            1                       # miss rate for ReadExReq accesses (Ratio)
board.cache_hierarchy.cc_l2cache.ReadExReq.missRate::processor.cores4.core.data            1                       # miss rate for ReadExReq accesses (Ratio)
board.cache_hierarchy.cc_l2cache.ReadExReq.missRate::processor.cores5.core.data            1                       # miss rate for ReadExReq accesses (Ratio)
board.cache_hierarchy.cc_l2cache.ReadExReq.missRate::processor.cores6.core.data            1                       # miss rate for ReadExReq accesses (Ratio)
board.cache_hierarchy.cc_l2cache.ReadExReq.missRate::processor.cores7.core.data            1                       # miss rate for ReadExReq accesses (Ratio)
board.cache_hierarchy.cc_l2cache.ReadExReq.missRate::total     0.879679                       # miss rate for ReadExReq accesses (Ratio)
board.cache_hierarchy.cc_l2cache.ReadExReq.avgMissLatency::processor.cores0.core.data 57448.163265                       # average ReadExReq miss latency ((Tick/Count))
board.cache_hierarchy.cc_l2cache.ReadExReq.avgMissLatency::processor.cores1.core.data 56876.400000                       # average ReadExReq miss latency ((Tick/Count))
board.cache_hierarchy.cc_l2cache.ReadExReq.avgMissLatency::processor.cores2.core.data 59407.200000                       # average ReadExReq miss latency ((Tick/Count))
board.cache_hierarchy.cc_l2cache.ReadExReq.avgMissLatency::processor.cores3.core.data 52880.400000                       # average ReadExReq miss latency ((Tick/Count))
board.cache_hierarchy.cc_l2cache.ReadExReq.avgMissLatency::processor.cores4.core.data 51415.200000                       # average ReadExReq miss latency ((Tick/Count))
board.cache_hierarchy.cc_l2cache.ReadExReq.avgMissLatency::processor.cores5.core.data 49017.600000                       # average ReadExReq miss latency ((Tick/Count))
board.cache_hierarchy.cc_l2cache.ReadExReq.avgMissLatency::processor.cores6.core.data        54279                       # average ReadExReq miss latency ((Tick/Count))
board.cache_hierarchy.cc_l2cache.ReadExReq.avgMissLatency::processor.cores7.core.data        47286                       # average ReadExReq miss latency ((Tick/Count))
board.cache_hierarchy.cc_l2cache.ReadExReq.avgMissLatency::total 56977.413374                       # average ReadExReq miss latency ((Tick/Count))
board.cache_hierarchy.cc_l2cache.ReadExReq.mshrMisses::processor.cores0.core.data          294                       # number of ReadExReq MSHR misses (Count)
board.cache_hierarchy.cc_l2cache.ReadExReq.mshrMisses::processor.cores1.core.data            5                       # number of ReadExReq MSHR misses (Count)
board.cache_hierarchy.cc_l2cache.ReadExReq.mshrMisses::processor.cores2.core.data            5                       # number of ReadExReq MSHR misses (Count)
board.cache_hierarchy.cc_l2cache.ReadExReq.mshrMisses::processor.cores3.core.data            5                       # number of ReadExReq MSHR misses (Count)
board.cache_hierarchy.cc_l2cache.ReadExReq.mshrMisses::processor.cores4.core.data            5                       # number of ReadExReq MSHR misses (Count)
board.cache_hierarchy.cc_l2cache.ReadExReq.mshrMisses::processor.cores5.core.data            5                       # number of ReadExReq MSHR misses (Count)
board.cache_hierarchy.cc_l2cache.ReadExReq.mshrMisses::processor.cores6.core.data            5                       # number of ReadExReq MSHR misses (Count)
board.cache_hierarchy.cc_l2cache.ReadExReq.mshrMisses::processor.cores7.core.data            5                       # number of ReadExReq MSHR misses (Count)
board.cache_hierarchy.cc_l2cache.ReadExReq.mshrMisses::total          329                       # number of ReadExReq MSHR misses (Count)
board.cache_hierarchy.cc_l2cache.ReadExReq.mshrMissLatency::processor.cores0.core.data     16791858                       # number of ReadExReq MSHR miss ticks (Tick)
board.cache_hierarchy.cc_l2cache.ReadExReq.mshrMissLatency::processor.cores1.core.data       282717                       # number of ReadExReq MSHR miss ticks (Tick)
board.cache_hierarchy.cc_l2cache.ReadExReq.mshrMissLatency::processor.cores2.core.data       295371                       # number of ReadExReq MSHR miss ticks (Tick)
board.cache_hierarchy.cc_l2cache.ReadExReq.mshrMissLatency::processor.cores3.core.data       262737                       # number of ReadExReq MSHR miss ticks (Tick)
board.cache_hierarchy.cc_l2cache.ReadExReq.mshrMissLatency::processor.cores4.core.data       255411                       # number of ReadExReq MSHR miss ticks (Tick)
board.cache_hierarchy.cc_l2cache.ReadExReq.mshrMissLatency::processor.cores5.core.data       243423                       # number of ReadExReq MSHR miss ticks (Tick)
board.cache_hierarchy.cc_l2cache.ReadExReq.mshrMissLatency::processor.cores6.core.data       269730                       # number of ReadExReq MSHR miss ticks (Tick)
board.cache_hierarchy.cc_l2cache.ReadExReq.mshrMissLatency::processor.cores7.core.data       234765                       # number of ReadExReq MSHR miss ticks (Tick)
board.cache_hierarchy.cc_l2cache.ReadExReq.mshrMissLatency::total     18636012                       # number of ReadExReq MSHR miss ticks (Tick)
board.cache_hierarchy.cc_l2cache.ReadExReq.mshrMissRate::processor.cores0.core.data     0.867257                       # mshr miss rate for ReadExReq accesses (Ratio)
board.cache_hierarchy.cc_l2cache.ReadExReq.mshrMissRate::processor.cores1.core.data            1                       # mshr miss rate for ReadExReq accesses (Ratio)
board.cache_hierarchy.cc_l2cache.ReadExReq.mshrMissRate::processor.cores2.core.data            1                       # mshr miss rate for ReadExReq accesses (Ratio)
board.cache_hierarchy.cc_l2cache.ReadExReq.mshrMissRate::processor.cores3.core.data            1                       # mshr miss rate for ReadExReq accesses (Ratio)
board.cache_hierarchy.cc_l2cache.ReadExReq.mshrMissRate::processor.cores4.core.data            1                       # mshr miss rate for ReadExReq accesses (Ratio)
board.cache_hierarchy.cc_l2cache.ReadExReq.mshrMissRate::processor.cores5.core.data            1                       # mshr miss rate for ReadExReq accesses (Ratio)
board.cache_hierarchy.cc_l2cache.ReadExReq.mshrMissRate::processor.cores6.core.data            1                       # mshr miss rate for ReadExReq accesses (Ratio)
board.cache_hierarchy.cc_l2cache.ReadExReq.mshrMissRate::processor.cores7.core.data            1                       # mshr miss rate for ReadExReq accesses (Ratio)
board.cache_hierarchy.cc_l2cache.ReadExReq.mshrMissRate::total     0.879679                       # mshr miss rate for ReadExReq accesses (Ratio)
board.cache_hierarchy.cc_l2cache.ReadExReq.avgMshrMissLatency::processor.cores0.core.data 57115.163265                       # average ReadExReq mshr miss latency ((Tick/Count))
board.cache_hierarchy.cc_l2cache.ReadExReq.avgMshrMissLatency::processor.cores1.core.data 56543.400000                       # average ReadExReq mshr miss latency ((Tick/Count))
board.cache_hierarchy.cc_l2cache.ReadExReq.avgMshrMissLatency::processor.cores2.core.data 59074.200000                       # average ReadExReq mshr miss latency ((Tick/Count))
board.cache_hierarchy.cc_l2cache.ReadExReq.avgMshrMissLatency::processor.cores3.core.data 52547.400000                       # average ReadExReq mshr miss latency ((Tick/Count))
board.cache_hierarchy.cc_l2cache.ReadExReq.avgMshrMissLatency::processor.cores4.core.data 51082.200000                       # average ReadExReq mshr miss latency ((Tick/Count))
board.cache_hierarchy.cc_l2cache.ReadExReq.avgMshrMissLatency::processor.cores5.core.data 48684.600000                       # average ReadExReq mshr miss latency ((Tick/Count))
board.cache_hierarchy.cc_l2cache.ReadExReq.avgMshrMissLatency::processor.cores6.core.data        53946                       # average ReadExReq mshr miss latency ((Tick/Count))
board.cache_hierarchy.cc_l2cache.ReadExReq.avgMshrMissLatency::processor.cores7.core.data        46953                       # average ReadExReq mshr miss latency ((Tick/Count))
board.cache_hierarchy.cc_l2cache.ReadExReq.avgMshrMissLatency::total 56644.413374                       # average ReadExReq mshr miss latency ((Tick/Count))
board.cache_hierarchy.cc_l2cache.ReadSharedReq.hits::cache_hierarchy.l1dcaches0.prefetcher           23                       # number of ReadSharedReq hits (Count)
board.cache_hierarchy.cc_l2cache.ReadSharedReq.hits::cache_hierarchy.l1dcaches5.prefetcher            2                       # number of ReadSharedReq hits (Count)
board.cache_hierarchy.cc_l2cache.ReadSharedReq.hits::processor.cores0.core.inst           40                       # number of ReadSharedReq hits (Count)
board.cache_hierarchy.cc_l2cache.ReadSharedReq.hits::processor.cores0.core.data           21                       # number of ReadSharedReq hits (Count)
board.cache_hierarchy.cc_l2cache.ReadSharedReq.hits::processor.cores1.core.inst           20                       # number of ReadSharedReq hits (Count)
board.cache_hierarchy.cc_l2cache.ReadSharedReq.hits::processor.cores1.core.data            3                       # number of ReadSharedReq hits (Count)
board.cache_hierarchy.cc_l2cache.ReadSharedReq.hits::processor.cores2.core.inst           33                       # number of ReadSharedReq hits (Count)
board.cache_hierarchy.cc_l2cache.ReadSharedReq.hits::processor.cores2.core.data            4                       # number of ReadSharedReq hits (Count)
board.cache_hierarchy.cc_l2cache.ReadSharedReq.hits::processor.cores3.core.inst           36                       # number of ReadSharedReq hits (Count)
board.cache_hierarchy.cc_l2cache.ReadSharedReq.hits::processor.cores3.core.data            3                       # number of ReadSharedReq hits (Count)
board.cache_hierarchy.cc_l2cache.ReadSharedReq.hits::processor.cores4.core.inst           38                       # number of ReadSharedReq hits (Count)
board.cache_hierarchy.cc_l2cache.ReadSharedReq.hits::processor.cores4.core.data            3                       # number of ReadSharedReq hits (Count)
[...]
board.processor.cores7.core.cc_buffer.decode_buffer_occupancy_histogram::26            1      0.00%     87.14% # Distribution of decode buffer occupancy (Unspecified)
board.processor.cores7.core.cc_buffer.decode_buffer_occupancy_histogram::27            0      0.00%     87.14% # Distribution of decode buffer occupancy (Unspecified)
board.processor.cores7.core.cc_buffer.decode_buffer_occupancy_histogram::28            2      0.00%     87.15% # Distribution of decode buffer occupancy (Unspecified)
board.processor.cores7.core.cc_buffer.decode_buffer_occupancy_histogram::29            0      0.00%     87.15% # Distribution of decode buffer occupancy (Unspecified)
board.processor.cores7.core.cc_buffer.decode_buffer_occupancy_histogram::30            1      0.00%     87.15% # Distribution of decode buffer occupancy (Unspecified)
board.processor.cores7.core.cc_buffer.decode_buffer_occupancy_histogram::31            0      0.00%     87.15% # Distribution of decode buffer occupancy (Unspecified)
board.processor.cores7.core.cc_buffer.decode_buffer_occupancy_histogram::32            1      0.00%     87.15% # Distribution of decode buffer occupancy (Unspecified)
board.processor.cores7.core.cc_buffer.decode_buffer_occupancy_histogram::33            0      0.00%     87.15% # Distribution of decode buffer occupancy (Unspecified)
board.processor.cores7.core.cc_buffer.decode_buffer_occupancy_histogram::34            2      0.00%     87.15% # Distribution of decode buffer occupancy (Unspecified)
board.processor.cores7.core.cc_buffer.decode_buffer_occupancy_histogram::35            0      0.00%     87.15% # Distribution of decode buffer occupancy (Unspecified)
board.processor.cores7.core.cc_buffer.decode_buffer_occupancy_histogram::36            4      0.00%     87.16% # Distribution of decode buffer occupancy (Unspecified)
board.processor.cores7.core.cc_buffer.decode_buffer_occupancy_histogram::37            1      0.00%     87.16% # Distribution of decode buffer occupancy (Unspecified)
board.processor.cores7.core.cc_buffer.decode_buffer_occupancy_histogram::38            3      0.00%     87.16% # Distribution of decode buffer occupancy (Unspecified)
board.processor.cores7.core.cc_buffer.decode_buffer_occupancy_histogram::39            1      0.00%     87.16% # Distribution of decode buffer occupancy (Unspecified)
board.processor.cores7.core.cc_buffer.decode_buffer_occupancy_histogram::40            3      0.00%     87.17% # Distribution of decode buffer occupancy (Unspecified)
board.processor.cores7.core.cc_buffer.decode_buffer_occupancy_histogram::41            3      0.00%     87.17% # Distribution of decode buffer occupancy (Unspecified)
board.processor.cores7.core.cc_buffer.decode_buffer_occupancy_histogram::42            3      0.00%     87.17% # Distribution of decode buffer occupancy (Unspecified)
board.processor.cores7.core.cc_buffer.decode_buffer_occupancy_histogram::43            1      0.00%     87.17% # Distribution of decode buffer occupancy (Unspecified)
board.processor.cores7.core.cc_buffer.decode_buffer_occupancy_histogram::44            3      0.00%     87.18% # Distribution of decode buffer occupancy (Unspecified)
board.processor.cores7.core.cc_buffer.decode_buffer_occupancy_histogram::45            2      0.00%     87.18% # Distribution of decode buffer occupancy (Unspecified)
board.processor.cores7.core.cc_buffer.decode_buffer_occupancy_histogram::46            1      0.00%     87.18% # Distribution of decode buffer occupancy (Unspecified)
board.processor.cores7.core.cc_buffer.decode_buffer_occupancy_histogram::47            2      0.00%     87.18% # Distribution of decode buffer occupancy (Unspecified)
board.processor.cores7.core.cc_buffer.decode_buffer_occupancy_histogram::48            1      0.00%     87.19% # Distribution of decode buffer occupancy (Unspecified)
board.processor.cores7.core.cc_buffer.decode_buffer_occupancy_histogram::49            2      0.00%     87.19% # Distribution of decode buffer occupancy (Unspecified)
board.processor.cores7.core.cc_buffer.decode_buffer_occupancy_histogram::50            1      0.00%     87.19% # Distribution of decode buffer occupancy (Unspecified)
board.processor.cores7.core.cc_buffer.decode_buffer_occupancy_histogram::51            2      0.00%     87.19% # Distribution of decode buffer occupancy (Unspecified)
board.processor.cores7.core.cc_buffer.decode_buffer_occupancy_histogram::52            2      0.00%     87.19% # Distribution of decode buffer occupancy (Unspecified)
board.processor.cores7.core.cc_buffer.decode_buffer_occupancy_histogram::53            4      0.00%     87.20% # Distribution of decode buffer occupancy (Unspecified)
board.processor.cores7.core.cc_buffer.decode_buffer_occupancy_histogram::54            2      0.00%     87.20% # Distribution of decode buffer occupancy (Unspecified)
board.processor.cores7.core.cc_buffer.decode_buffer_occupancy_histogram::55            2      0.00%     87.20% # Distribution of decode buffer occupancy (Unspecified)
board.processor.cores7.core.cc_buffer.decode_buffer_occupancy_histogram::56            3      0.00%     87.21% # Distribution of decode buffer occupancy (Unspecified)
board.processor.cores7.core.cc_buffer.decode_buffer_occupancy_histogram::57            3      0.00%     87.21% # Distribution of decode buffer occupancy (Unspecified)
board.processor.cores7.core.cc_buffer.decode_buffer_occupancy_histogram::58            5      0.01%     87.22% # Distribution of decode buffer occupancy (Unspecified)
board.processor.cores7.core.cc_buffer.decode_buffer_occupancy_histogram::59            2      0.00%     87.22% # Distribution of decode buffer occupancy (Unspecified)
board.processor.cores7.core.cc_buffer.decode_buffer_occupancy_histogram::60         7851      9.60%     96.82% # Distribution of decode buffer occupancy (Unspecified)
board.processor.cores7.core.cc_buffer.decode_buffer_occupancy_histogram::61         1120      1.37%     98.19% # Distribution of decode buffer occupancy (Unspecified)
board.processor.cores7.core.cc_buffer.decode_buffer_occupancy_histogram::62          886      1.08%     99.28% # Distribution of decode buffer occupancy (Unspecified)
board.processor.cores7.core.cc_buffer.decode_buffer_occupancy_histogram::63          393      0.48%     99.76% # Distribution of decode buffer occupancy (Unspecified)
board.processor.cores7.core.cc_buffer.decode_buffer_occupancy_histogram::64          197      0.24%    100.00% # Distribution of decode buffer occupancy (Unspecified)
board.processor.cores7.core.cc_buffer.decode_buffer_occupancy_histogram::overflows            0      0.00%    100.00% # Distribution of decode buffer occupancy (Unspecified)
board.processor.cores7.core.cc_buffer.decode_buffer_occupancy_histogram::min_value            0                       # Distribution of decode buffer occupancy (Unspecified)
board.processor.cores7.core.cc_buffer.decode_buffer_occupancy_histogram::max_value           64                       # Distribution of decode buffer occupancy (Unspecified)
board.processor.cores7.core.cc_buffer.decode_buffer_occupancy_histogram::total        81741                       # Distribution of decode buffer occupancy (Unspecified)
board.processor.cores7.core.cc_buffer.execute_buffer_occupancy_histogram::samples        81741                       # Distribution of decode buffer occupancy (Unspecified)
board.processor.cores7.core.cc_buffer.execute_buffer_occupancy_histogram::mean     2.922511                       # Distribution of decode buffer occupancy (Unspecified)
board.processor.cores7.core.cc_buffer.execute_buffer_occupancy_histogram::stdev    12.567889                       # Distribution of decode buffer occupancy (Unspecified)
board.processor.cores7.core.cc_buffer.execute_buffer_occupancy_histogram::underflows            0      0.00%      0.00% # Distribution of decode buffer occupancy (Unspecified)
board.processor.cores7.core.cc_buffer.execute_buffer_occupancy_histogram::0        71111     87.00%     87.00% # Distribution of decode buffer occupancy (Unspecified)
board.processor.cores7.core.cc_buffer.execute_buffer_occupancy_histogram::1            9      0.01%     87.01% # Distribution of decode buffer occupancy (Unspecified)
board.processor.cores7.core.cc_buffer.execute_buffer_occupancy_histogram::2         6789      8.31%     95.31% # Distribution of decode buffer occupancy (Unspecified)
board.processor.cores7.core.cc_buffer.execute_buffer_occupancy_histogram::3           12      0.01%     95.33% # Distribution of decode buffer occupancy (Unspecified)
board.processor.cores7.core.cc_buffer.execute_buffer_occupancy_histogram::4           18      0.02%     95.35% # Distribution of decode buffer occupancy (Unspecified)
board.processor.cores7.core.cc_buffer.execute_buffer_occupancy_histogram::5            7      0.01%     95.36% # Distribution of decode buffer occupancy (Unspecified)
board.processor.cores7.core.cc_buffer.execute_buffer_occupancy_histogram::6           11      0.01%     95.37% # Distribution of decode buffer occupancy (Unspecified)
board.processor.cores7.core.cc_buffer.execute_buffer_occupancy_histogram::7            3      0.00%     95.37% # Distribution of decode buffer occupancy (Unspecified)
board.processor.cores7.core.cc_buffer.execute_buffer_occupancy_histogram::8            6      0.01%     95.38% # Distribution of decode buffer occupancy (Unspecified)
board.processor.cores7.core.cc_buffer.execute_buffer_occupancy_histogram::9            5      0.01%     95.39% # Distribution of decode buffer occupancy (Unspecified)
board.processor.cores7.core.cc_buffer.execute_buffer_occupancy_histogram::10            6      0.01%     95.40% # Distribution of decode buffer occupancy (Unspecified)
board.processor.cores7.core.cc_buffer.execute_buffer_occupancy_histogram::11            3      0.00%     95.40% # Distribution of decode buffer occupancy (Unspecified)
board.processor.cores7.core.cc_buffer.execute_buffer_occupancy_histogram::12            3      0.00%     95.40% # Distribution of decode buffer occupancy (Unspecified)
board.processor.cores7.core.cc_buffer.execute_buffer_occupancy_histogram::13            0      0.00%     95.40% # Distribution of decode buffer occupancy (Unspecified)
board.processor.cores7.core.cc_buffer.execute_buffer_occupancy_histogram::14            3      0.00%     95.41% # Distribution of decode buffer occupancy (Unspecified)
board.processor.cores7.core.cc_buffer.execute_buffer_occupancy_histogram::15            1      0.00%     95.41% # Distribution of decode buffer occupancy (Unspecified)
board.processor.cores7.core.cc_buffer.execute_buffer_occupancy_histogram::16            2      0.00%     95.41% # Distribution of decode buffer occupancy (Unspecified)
board.processor.cores7.core.cc_buffer.execute_buffer_occupancy_histogram::17            2      0.00%     95.41% # Distribution of decode buffer occupancy (Unspecified)
board.processor.cores7.core.cc_buffer.execute_buffer_occupancy_histogram::18            3      0.00%     95.42% # Distribution of decode buffer occupancy (Unspecified)
board.processor.cores7.core.cc_buffer.execute_buffer_occupancy_histogram::19            1      0.00%     95.42% # Distribution of decode buffer occupancy (Unspecified)
board.processor.cores7.core.cc_buffer.execute_buffer_occupancy_histogram::20            3      0.00%     95.42% # Distribution of decode buffer occupancy (Unspecified)
board.processor.cores7.core.cc_buffer.execute_buffer_occupancy_histogram::21            1      0.00%     95.42% # Distribution of decode buffer occupancy (Unspecified)
board.processor.cores7.core.cc_buffer.execute_buffer_occupancy_histogram::22            2      0.00%     95.42% # Distribution of decode buffer occupancy (Unspecified)
board.processor.cores7.core.cc_buffer.execute_buffer_occupancy_histogram::23            6      0.01%     95.43% # Distribution of decode buffer occupancy (Unspecified)
board.processor.cores7.core.cc_buffer.execute_buffer_occupancy_histogram::24            9      0.01%     95.44% # Distribution of decode buffer occupancy (Unspecified)
board.processor.cores7.core.cc_buffer.execute_buffer_occupancy_histogram::25            6      0.01%     95.45% # Distribution of decode buffer occupancy (Unspecified)
board.processor.cores7.core.cc_buffer.execute_buffer_occupancy_histogram::26            5      0.01%     95.46% # Distribution of decode buffer occupancy (Unspecified)
board.processor.cores7.core.cc_buffer.execute_buffer_occupancy_histogram::27            5      0.01%     95.46% # Distribution of decode buffer occupancy (Unspecified)
board.processor.cores7.core.cc_buffer.execute_buffer_occupancy_histogram::28            4      0.00%     95.47% # Distribution of decode buffer occupancy (Unspecified)
board.processor.cores7.core.cc_buffer.execute_buffer_occupancy_histogram::29            3      0.00%     95.47% # Distribution of decode buffer occupancy (Unspecified)
board.processor.cores7.core.cc_buffer.execute_buffer_occupancy_histogram::30            2      0.00%     95.47% # Distribution of decode buffer occupancy (Unspecified)
board.processor.cores7.core.cc_buffer.execute_buffer_occupancy_histogram::31            2      0.00%     95.48% # Distribution of decode buffer occupancy (Unspecified)
board.processor.cores7.core.cc_buffer.execute_buffer_occupancy_histogram::32            2      0.00%     95.48% # Distribution of decode buffer occupancy (Unspecified)
board.processor.cores7.core.cc_buffer.execute_buffer_occupancy_histogram::33            1      0.00%     95.48% # Distribution of decode buffer occupancy (Unspecified)
board.processor.cores7.core.cc_buffer.execute_buffer_occupancy_histogram::34            4      0.00%     95.48% # Distribution of decode buffer occupancy (Unspecified)
board.processor.cores7.core.cc_buffer.execute_buffer_occupancy_histogram::35            1      0.00%     95.49% # Distribution of decode buffer occupancy (Unspecified)
board.processor.cores7.core.cc_buffer.execute_buffer_occupancy_histogram::36            4      0.00%     95.49% # Distribution of decode buffer occupancy (Unspecified)
board.processor.cores7.core.cc_buffer.execute_buffer_occupancy_histogram::37            2      0.00%     95.49% # Distribution of decode buffer occupancy (Unspecified)
board.processor.cores7.core.cc_buffer.execute_buffer_occupancy_histogram::38            3      0.00%     95.50% # Distribution of decode buffer occupancy (Unspecified)
board.processor.cores7.core.cc_buffer.execute_buffer_occupancy_histogram::39            7      0.01%     95.51% # Distribution of decode buffer occupancy (Unspecified)
board.processor.cores7.core.cc_buffer.execute_buffer_occupancy_histogram::40            4      0.00%     95.51% # Distribution of decode buffer occupancy (Unspecified)
board.processor.cores7.core.cc_buffer.execute_buffer_occupancy_histogram::41            9      0.01%     95.52% # Distribution of decode buffer occupancy (Unspecified)
board.processor.cores7.core.cc_buffer.execute_buffer_occupancy_histogram::42            8      0.01%     95.53% # Distribution of decode buffer occupancy (Unspecified)
board.processor.cores7.core.cc_buffer.execute_buffer_occupancy_histogram::43            3      0.00%     95.53% # Distribution of decode buffer occupancy (Unspecified)
board.processor.cores7.core.cc_buffer.execute_buffer_occupancy_histogram::44           11      0.01%     95.55% # Distribution of decode buffer occupancy (Unspecified)
board.processor.cores7.core.cc_buffer.execute_buffer_occupancy_histogram::45            6      0.01%     95.56% # Distribution of decode buffer occupancy (Unspecified)
board.processor.cores7.core.cc_buffer.execute_buffer_occupancy_histogram::46            4      0.00%     95.56% # Distribution of decode buffer occupancy (Unspecified)
board.processor.cores7.core.cc_buffer.execute_buffer_occupancy_histogram::47            4      0.00%     95.57% # Distribution of decode buffer occupancy (Unspecified)
board.processor.cores7.core.cc_buffer.execute_buffer_occupancy_histogram::48            6      0.01%     95.57% # Distribution of decode buffer occupancy (Unspecified)
board.processor.cores7.core.cc_buffer.execute_buffer_occupancy_histogram::49            9      0.01%     95.58% # Distribution of decode buffer occupancy (Unspecified)
board.processor.cores7.core.cc_buffer.execute_buffer_occupancy_histogram::50           11      0.01%     95.60% # Distribution of decode buffer occupancy (Unspecified)
board.processor.cores7.core.cc_buffer.execute_buffer_occupancy_histogram::51            7      0.01%     95.61% # Distribution of decode buffer occupancy (Unspecified)
board.processor.cores7.core.cc_buffer.execute_buffer_occupancy_histogram::52           10      0.01%     95.62% # Distribution of decode buffer occupancy (Unspecified)
board.processor.cores7.core.cc_buffer.execute_buffer_occupancy_histogram::53           13      0.02%     95.63% # Distribution of decode buffer occupancy (Unspecified)
board.processor.cores7.core.cc_buffer.execute_buffer_occupancy_histogram::54           12      0.01%     95.65% # Distribution of decode buffer occupancy (Unspecified)
board.processor.cores7.core.cc_buffer.execute_buffer_occupancy_histogram::55           18      0.02%     95.67% # Distribution of decode buffer occupancy (Unspecified)
board.processor.cores7.core.cc_buffer.execute_buffer_occupancy_histogram::56           16      0.02%     95.69% # Distribution of decode buffer occupancy (Unspecified)
board.processor.cores7.core.cc_buffer.execute_buffer_occupancy_histogram::57           15      0.02%     95.71% # Distribution of decode buffer occupancy (Unspecified)
board.processor.cores7.core.cc_buffer.execute_buffer_occupancy_histogram::58          133      0.16%     95.87% # Distribution of decode buffer occupancy (Unspecified)
board.processor.cores7.core.cc_buffer.execute_buffer_occupancy_histogram::59          257      0.31%     96.19% # Distribution of decode buffer occupancy (Unspecified)
board.processor.cores7.core.cc_buffer.execute_buffer_occupancy_histogram::60          759      0.93%     97.11% # Distribution of decode buffer occupancy (Unspecified)
board.processor.cores7.core.cc_buffer.execute_buffer_occupancy_histogram::61         1253      1.53%     98.65% # Distribution of decode buffer occupancy (Unspecified)
board.processor.cores7.core.cc_buffer.execute_buffer_occupancy_histogram::62          511      0.63%     99.27% # Distribution of decode buffer occupancy (Unspecified)
board.processor.cores7.core.cc_buffer.execute_buffer_occupancy_histogram::63          400      0.49%     99.76% # Distribution of decode buffer occupancy (Unspecified)
board.processor.cores7.core.cc_buffer.execute_buffer_occupancy_histogram::64          195      0.24%    100.00% # Distribution of decode buffer occupancy (Unspecified)
board.processor.cores7.core.cc_buffer.execute_buffer_occupancy_histogram::overflows            0      0.00%    100.00% # Distribution of decode buffer occupancy (Unspecified)
board.processor.cores7.core.cc_buffer.execute_buffer_occupancy_histogram::min_value            0                       # Distribution of decode buffer occupancy (Unspecified)
board.processor.cores7.core.cc_buffer.execute_buffer_occupancy_histogram::max_value           64                       # Distribution of decode buffer occupancy (Unspecified)
board.processor.cores7.core.cc_buffer.execute_buffer_occupancy_histogram::total        81741                       # Distribution of decode buffer occupancy (Unspecified)
board.processor.cores7.core.cc_buffer.ooo_stall_signals        41692                       # Number of cycles stalled due to buffer (Unspecified)
board.processor.cores7.core.cc_buffer.regfile_insts_processed        18680                       # Number of cycles stalled due to buffer (Unspecified)

---------- End Simulation Statistics   ----------
