Global frequency set at 1000000000000 ticks per second
gem5 Simulator System.  https://www.gem5.org
gem5 is copyrighted software; use the --copyright option for details.

gem5 version 23.1.0.0
gem5 compiled Mar 21 2024 19:58:08
gem5 started Sep  2 2024 23:49:38
gem5 executing on clipper01, pid 2423011
command line: ./build/X86/gem5.opt --debug-flags=ExecAll ./_checker/v0.1/hello-world.py

info: Using default config
  69597: board.processor.cores.core: A0 T0 : 0x400990 @_start    : xor	ebp                   
  69597: board.processor.cores.core: A0 T0 : 0x400990 @_start. 0 :   XOR_R_R : xor   ebp, ebp, ebp : IntAlu :  D=0x0000000000000000  flags=(IsInteger|IsMicroop|IsLastMicroop|IsFirstMicroop)
 111888: board.processor.cores.core: A0 T0 : 0x400992 @_start+2    : mov	rdx                   
 111888: board.processor.cores.core: A0 T0 : 0x400992 @_start+2. 0 :   MOV_R_R : mov   r9, r9, rdx : IntAlu :  D=0x0000000000000000  flags=(IsInteger|IsMicroop|IsLastMicroop|IsFirstMicroop)
 154179: board.processor.cores.core: A0 T0 : 0x400995 @_start+5    : pop	rsi                   
 154179: board.processor.cores.core: A0 T0 : 0x400995 @_start+5. 0 :   POP_R : ld   t1, SS:[t0 + rsp] : MemRead :  D=0x0000000000000001 A=0x7fffffffee30  flags=(IsInteger|IsLoad|IsMicroop|IsDelayedCommit|IsFirstMicroop)
 210123: board.processor.cores.core: A0 T0 : 0x400995 @_start+5. 1 :   POP_R : addi   rsp, rsp, 0x8 : IntAlu :  D=0x00007fffffffee38  flags=(IsInteger|IsMicroop|IsDelayedCommit)
 210123: board.processor.cores.core: A0 T0 : 0x400995 @_start+5. 2 :   POP_R : mov   rsi, rsi, t1 : IntAlu :  D=0x0000000000000001  flags=(IsInteger|IsMicroop|IsLastMicroop)
 294705: board.processor.cores.core: A0 T0 : 0x400996 @_start+6    : mov	rsp                   
 294705: board.processor.cores.core: A0 T0 : 0x400996 @_start+6. 0 :   MOV_R_R : mov   rdx, rdx, rsp : IntAlu :  D=0x00007fffffffee38  flags=(IsInteger|IsMicroop|IsLastMicroop|IsFirstMicroop)
 336996: board.processor.cores.core: A0 T0 : 0x400999 @_start+9    : and	rsp, 0xfffffffffffffff0
 336996: board.processor.cores.core: A0 T0 : 0x400999 @_start+9. 0 :   AND_R_I : limm   t1, 0xfffffffffffffff0 : IntAlu :  D=0xfffffffffffffff0  flags=(IsInteger|IsMicroop|IsDelayedCommit|IsFirstMicroop)
 336996: board.processor.cores.core: A0 T0 : 0x400999 @_start+9. 1 :   AND_R_I : and   rsp, rsp, t1 : IntAlu :  D=0x0000000000000000  flags=(IsInteger|IsMicroop|IsLastMicroop)
 379287: board.processor.cores.core: A0 T0 : 0x40099d @_start+13    : push	rax                  
 379287: board.processor.cores.core: A0 T0 : 0x40099d @_start+13. 0 :   PUSH_R : st   rax, SS:[t0 + rsp + 0xfffffffffffffff8] : MemWrite :  D=0x0000000000000000 A=0x7fffffffee28  flags=(IsInteger|IsStore|IsMicroop|IsDelayedCommit|IsFirstMicroop)
 393273: board.processor.cores.core: A0 T0 : 0x40099d @_start+13. 1 :   PUSH_R : subi   rsp, rsp, 0x8 : IntAlu :  D=0x00007fffffffee28  flags=(IsInteger|IsMicroop|IsLastMicroop)
 435564: board.processor.cores.core: A0 T0 : 0x40099e @_start+14    : push	rsp                  
 435564: board.processor.cores.core: A0 T0 : 0x40099e @_start+14. 0 :   PUSH_R : st   rsp, SS:[t0 + rsp + 0xfffffffffffffff8] : MemWrite :  D=0x00007fffffffee28 A=0x7fffffffee20  flags=(IsInteger|IsStore|IsMicroop|IsDelayedCommit|IsFirstMicroop)
 449550: board.processor.cores.core: A0 T0 : 0x40099e @_start+14. 1 :   PUSH_R : subi   rsp, rsp, 0x8 : IntAlu :  D=0x00007fffffffee20  flags=(IsInteger|IsMicroop|IsLastMicroop)
 534132: board.processor.cores.core: A0 T0 : 0x40099f @_start+15    : mov	r15, 0x401730         
 534132: board.processor.cores.core: A0 T0 : 0x40099f @_start+15. 0 :   MOV_R_I : limm   r8, 0x401730 : IntAlu :  D=0x0000000000401730  flags=(IsInteger|IsMicroop|IsLastMicroop|IsFirstMicroop)
 618714: board.processor.cores.core: A0 T0 : 0x4009a6 @_start+22    : mov	rdi, 0x4016a0         
 618714: board.processor.cores.core: A0 T0 : 0x4009a6 @_start+22. 0 :   MOV_R_I : limm   rcx, 0x4016a0 : IntAlu :  D=0x00000000004016a0  flags=(IsInteger|IsMicroop|IsLastMicroop|IsFirstMicroop)
 703296: board.processor.cores.core: A0 T0 : 0x4009ad @_start+29    : mov	rdi, 0x400aae         
 703296: board.processor.cores.core: A0 T0 : 0x4009ad @_start+29. 0 :   MOV_R_I : limm   rdi, 0x400aae : IntAlu :  D=0x0000000000400aae  flags=(IsInteger|IsMicroop|IsLastMicroop|IsFirstMicroop)
 787878: board.processor.cores.core: A0 T0 : 0x4009b4 @_start+36    : call	0x616                
 787878: board.processor.cores.core: A0 T0 : 0x4009b4 @_start+36. 0 :   CALL_NEAR_I : limm   t1, 0x616 : IntAlu :  D=0x0000000000000616  flags=(IsInteger|IsMicroop|IsDelayedCommit|IsFirstMicroop)
 787878: board.processor.cores.core: A0 T0 : 0x4009b4 @_start+36. 1 :   CALL_NEAR_I : rdip   t7, t7 : IntAlu :  D=0x00000000004009ba  flags=(IsInteger|IsMicroop|IsDelayedCommit)
 787878: board.processor.cores.core: A0 T0 : 0x4009b4 @_start+36. 2 :   CALL_NEAR_I : st   t7, SS:[rsp + 0xfffffffffffffff8] : MemWrite :  D=0x00000000004009ba A=0x7fffffffee18  flags=(IsInteger|IsStore|IsMicroop|IsDelayedCommit)
 801864: board.processor.cores.core: A0 T0 : 0x4009b4 @_start+36. 3 :   CALL_NEAR_I : subi   rsp, rsp, 0x8 : IntAlu :  D=0x00007fffffffee18  flags=(IsInteger|IsMicroop|IsDelayedCommit)
 801864: board.processor.cores.core: A0 T0 : 0x4009b4 @_start+36. 4 :   CALL_NEAR_I : wrip   t7, t1 : IntAlu :   flags=(IsInteger|IsControl|IsDirectControl|IsUncondControl|IsCall|IsMicroop|IsLastMicroop)
 857808: board.processor.cores.core: A0 T0 : 0x400fd0 @__libc_start_main    : push	r14                  
 857808: board.processor.cores.core: A0 T0 : 0x400fd0 @__libc_start_main. 0 :   PUSH_R : st   r14, SS:[t0 + rsp + 0xfffffffffffffff8] : MemWrite :  D=0x0000000000000000 A=0x7fffffffee10  flags=(IsInteger|IsStore|IsMicroop|IsDelayedCommit|IsFirstMicroop)
 871794: board.processor.cores.core: A0 T0 : 0x400fd0 @__libc_start_main. 1 :   PUSH_R : subi   rsp, rsp, 0x8 : IntAlu :  D=0x00007fffffffee10  flags=(IsInteger|IsMicroop|IsLastMicroop)
 914085: board.processor.cores.core: A0 T0 : 0x400fd2 @__libc_start_main+2    : push	r13                  
 914085: board.processor.cores.core: A0 T0 : 0x400fd2 @__libc_start_main+2. 0 :   PUSH_R : st   r13, SS:[t0 + rsp + 0xfffffffffffffff8] : MemWrite :  D=0x0000000000000000 A=0x7fffffffee08  flags=(IsInteger|IsStore|IsMicroop|IsDelayedCommit|IsFirstMicroop)
 928071: board.processor.cores.core: A0 T0 : 0x400fd2 @__libc_start_main+2. 1 :   PUSH_R : subi   rsp, rsp, 0x8 : IntAlu :  D=0x00007fffffffee08  flags=(IsInteger|IsMicroop|IsLastMicroop)
 970362: board.processor.cores.core: A0 T0 : 0x400fd4 @__libc_start_main+4    : xor	eax                   
 970362: board.processor.cores.core: A0 T0 : 0x400fd4 @__libc_start_main+4. 0 :   XOR_R_R : xor   eax, eax, eax : IntAlu :  D=0x0000000000000000  flags=(IsInteger|IsMicroop|IsLastMicroop|IsFirstMicroop)
1012653: board.processor.cores.core: A0 T0 : 0x400fd6 @__libc_start_main+6    : push	r12                  
1012653: board.processor.cores.core: A0 T0 : 0x400fd6 @__libc_start_main+6. 0 :   PUSH_R : st   r12, SS:[t0 + rsp + 0xfffffffffffffff8] : MemWrite :  D=0x0000000000000000 A=0x7fffffffee00  flags=(IsInteger|IsStore|IsMicroop|IsDelayedCommit|IsFirstMicroop)
1026639: board.processor.cores.core: A0 T0 : 0x400fd6 @__libc_start_main+6. 1 :   PUSH_R : subi   rsp, rsp, 0x8 : IntAlu :  D=0x00007fffffffee00  flags=(IsInteger|IsMicroop|IsLastMicroop)
1068930: board.processor.cores.core: A0 T0 : 0x400fd8 @__libc_start_main+8    : push	rbp                  
1068930: board.processor.cores.core: A0 T0 : 0x400fd8 @__libc_start_main+8. 0 :   PUSH_R : st   rbp, SS:[t0 + rsp + 0xfffffffffffffff8] : MemWrite :  D=0x0000000000000000 A=0x7fffffffedf8  flags=(IsInteger|IsStore|IsMicroop|IsDelayedCommit|IsFirstMicroop)
1082916: board.processor.cores.core: A0 T0 : 0x400fd8 @__libc_start_main+8. 1 :   PUSH_R : subi   rsp, rsp, 0x8 : IntAlu :  D=0x00007fffffffedf8  flags=(IsInteger|IsMicroop|IsLastMicroop)
1125207: board.processor.cores.core: A0 T0 : 0x400fd9 @__libc_start_main+9    : mov	rdx                   
1125207: board.processor.cores.core: A0 T0 : 0x400fd9 @__libc_start_main+9. 0 :   MOV_R_R : mov   r13, r13, rdx : IntAlu :  D=0x00007fffffffee38  flags=(IsInteger|IsMicroop|IsLastMicroop|IsFirstMicroop)
1167498: board.processor.cores.core: A0 T0 : 0x400fdc @__libc_start_main+12    : push	rbx                  
1167498: board.processor.cores.core: A0 T0 : 0x400fdc @__libc_start_main+12. 0 :   PUSH_R : st   rbx, SS:[t0 + rsp + 0xfffffffffffffff8] : MemWrite :  D=0x0000000000000000 A=0x7fffffffedf0  flags=(IsInteger|IsStore|IsMicroop|IsDelayedCommit|IsFirstMicroop)
1181484: board.processor.cores.core: A0 T0 : 0x400fdc @__libc_start_main+12. 1 :   PUSH_R : subi   rsp, rsp, 0x8 : IntAlu :  D=0x00007fffffffedf0  flags=(IsInteger|IsMicroop|IsLastMicroop)
1223775: board.processor.cores.core: A0 T0 : 0x400fdd @__libc_start_main+13    : mov	rcx                   
1223775: board.processor.cores.core: A0 T0 : 0x400fdd @__libc_start_main+13. 0 :   MOV_R_R : mov   r14, r14, rcx : IntAlu :  D=0x00000000004016a0  flags=(IsInteger|IsMicroop|IsLastMicroop|IsFirstMicroop)
1266066: board.processor.cores.core: A0 T0 : 0x400fe0 @__libc_start_main+16    : mov	esi                   
1266066: board.processor.cores.core: A0 T0 : 0x400fe0 @__libc_start_main+16. 0 :   MOV_R_R : mov   r12d, r12d, esi : IntAlu :  D=0x0000000000000001  flags=(IsInteger|IsMicroop|IsLastMicroop|IsFirstMicroop)
1308357: board.processor.cores.core: A0 T0 : 0x400fe3 @__libc_start_main+19    :   CPUID                    : IntAlu :  D=0x000000006e65476e  flags=(IsInteger|IsSerializing|IsSerializeAfter)
1392939: board.processor.cores.core: A0 T0 : 0x400fe5 @__libc_start_main+21    : sub	rsp, 0x20             
1392939: board.processor.cores.core: A0 T0 : 0x400fe5 @__libc_start_main+21. 0 :   SUB_R_I : limm   t1, 0x20 : IntAlu :  D=0x0000000000000020  flags=(IsInteger|IsMicroop|IsDelayedCommit|IsFirstMicroop)
1392939: board.processor.cores.core: A0 T0 : 0x400fe5 @__libc_start_main+21. 1 :   SUB_R_I : sub   rsp, rsp, t1 : IntAlu :  D=0x0000000000000000  flags=(IsInteger|IsMicroop|IsLastMicroop)
1435230: board.processor.cores.core: A0 T0 : 0x400fe9 @__libc_start_main+25    : cmp	ebx, 0x756e6547       
1435230: board.processor.cores.core: A0 T0 : 0x400fe9 @__libc_start_main+25. 0 :   CMP_R_I : limm   t1d, 0x756e6547 : IntAlu :  D=0x00000000756e6547  flags=(IsInteger|IsMicroop|IsDelayedCommit|IsFirstMicroop)
1435230: board.processor.cores.core: A0 T0 : 0x400fe9 @__libc_start_main+25. 1 :   CMP_R_I : sub   t0d, ebx, t1d : IntAlu :  D=0x0000000000000000  flags=(IsInteger|IsMicroop|IsLastMicroop)
1519812: board.processor.cores.core: A0 T0 : 0x400fef @__libc_start_main+31    : mov	DS:[rip + 0x2b368f], eax
1519812: board.processor.cores.core: A0 T0 : 0x400fef @__libc_start_main+31. 0 :   MOV_P_R : rdip   t7d, t7d : IntAlu :  D=0x0000000000400ff5  flags=(IsInteger|IsMicroop|IsDelayedCommit|IsFirstMicroop)
1519812: board.processor.cores.core: A0 T0 : 0x400fef @__libc_start_main+31. 1 :   MOV_P_R : st   eax, DS:[t0 + t7 + 0x2b368f] : MemWrite :  D=0x000000000000000d A=0x6b4684  flags=(IsInteger|IsStore|IsMicroop|IsLastMicroop)
1632033: board.processor.cores.core: A0 T0 : 0x400ff5 @__libc_start_main+37    : setz	                     
1632033: board.processor.cores.core: A0 T0 : 0x400ff5 @__libc_start_main+37. 0 :   SETZ_R : movi   sil, sil, 0x1 : IntAlu :  D=0x0000000000000001  flags=(IsInteger|IsMicroop|IsDelayedCommit|IsFirstMicroop)
1632033: board.processor.cores.core: A0 T0 : 0x400ff5 @__libc_start_main+37. 1 :   SETZ_R : movi   sil, sil, 0 : IntAlu :  D=0x0000000000000000  flags=(IsInteger|IsMicroop|IsLastMicroop)
1674324: board.processor.cores.core: A0 T0 : 0x400ff9 @__libc_start_main+41    : cmp	ecx, 0x6c65746e       
1674324: board.processor.cores.core: A0 T0 : 0x400ff9 @__libc_start_main+41. 0 :   CMP_R_I : limm   t1d, 0x6c65746e : IntAlu :  D=0x000000006c65746e  flags=(IsInteger|IsMicroop|IsDelayedCommit|IsFirstMicroop)
1674324: board.processor.cores.core: A0 T0 : 0x400ff9 @__libc_start_main+41. 1 :   CMP_R_I : sub   t0d, ecx, t1d : IntAlu :  D=0x0000000000000000  flags=(IsInteger|IsMicroop|IsLastMicroop)
1758906: board.processor.cores.core: A0 T0 : 0x400fff @__libc_start_main+47    : mov	rdi                   
1758906: board.processor.cores.core: A0 T0 : 0x400fff @__libc_start_main+47. 0 :   MOV_R_R : mov   rbp, rbp, rdi : IntAlu :  D=0x0000000000400aae  flags=(IsInteger|IsMicroop|IsLastMicroop|IsFirstMicroop)
1801197: board.processor.cores.core: A0 T0 : 0x401002 @__libc_start_main+50    : setz	                     
1801197: board.processor.cores.core: A0 T0 : 0x401002 @__libc_start_main+50. 0 :   SETZ_R : movi   al, al, 0x1 : IntAlu :  D=0x000000000000000d  flags=(IsInteger|IsMicroop|IsDelayedCommit|IsFirstMicroop)
1801197: board.processor.cores.core: A0 T0 : 0x401002 @__libc_start_main+50. 1 :   SETZ_R : movi   al, al, 0 : IntAlu :  D=0x0000000000000000  flags=(IsInteger|IsMicroop|IsLastMicroop)
1885779: board.processor.cores.core: A0 T0 : 0x401005 @__libc_start_main+53    : mov	SS:[t0 + rsp + 0x10], 0
1885779: board.processor.cores.core: A0 T0 : 0x401005 @__libc_start_main+53. 0 :   MOV_M_I : limm   t1d, 0  : IntAlu :  D=0x0000000000000000  flags=(IsInteger|IsMicroop|IsDelayedCommit|IsFirstMicroop)
1885779: board.processor.cores.core: A0 T0 : 0x401005 @__libc_start_main+53. 1 :   MOV_M_I : st   t1d, SS:[t0 + rsp + 0x10] : MemWrite :  D=0x0000000000000000 A=0x7fffffffede0  flags=(IsInteger|IsStore|IsMicroop|IsLastMicroop)
1984347: board.processor.cores.core: A0 T0 : 0x40100d @__libc_start_main+61    : mov	SS:[t0 + rsp + 0x14], 0
1984347: board.processor.cores.core: A0 T0 : 0x40100d @__libc_start_main+61. 0 :   MOV_M_I : limm   t1d, 0  : IntAlu :  D=0x0000000000000000  flags=(IsInteger|IsMicroop|IsDelayedCommit|IsFirstMicroop)
1984347: board.processor.cores.core: A0 T0 : 0x40100d @__libc_start_main+61. 1 :   MOV_M_I : st   t1d, SS:[t0 + rsp + 0x14] : MemWrite :  D=0x0000000000000000 A=0x7fffffffede4  flags=(IsInteger|IsStore|IsMicroop|IsLastMicroop)
2040624: board.processor.cores.core: A0 T0 : 0x401015 @__libc_start_main+69    : test	al                   
2040624: board.processor.cores.core: A0 T0 : 0x401015 @__libc_start_main+69. 0 :   TEST_R_R : and   t0b, sil, al : IntAlu :  D=0x0000000000000000  flags=(IsInteger|IsMicroop|IsLastMicroop|IsFirstMicroop)
2082915: board.processor.cores.core: A0 T0 : 0x401018 @__libc_start_main+72    : mov	SS:[t0 + rsp + 0x18], 0
2082915: board.processor.cores.core: A0 T0 : 0x401018 @__libc_start_main+72. 0 :   MOV_M_I : limm   t1d, 0  : IntAlu :  D=0x0000000000000000  flags=(IsInteger|IsMicroop|IsDelayedCommit|IsFirstMicroop)
2082915: board.processor.cores.core: A0 T0 : 0x401018 @__libc_start_main+72. 1 :   MOV_M_I : st   t1d, SS:[t0 + rsp + 0x18] : MemWrite :  D=0x0000000000000000 A=0x7fffffffede8  flags=(IsInteger|IsStore|IsMicroop|IsLastMicroop)
2139192: board.processor.cores.core: A0 T0 : 0x401020 @__libc_start_main+80    : jz	0xc                    
2139192: board.processor.cores.core: A0 T0 : 0x401020 @__libc_start_main+80. 0 :   JZ_I : rdip   t1, t1     : IntAlu :  D=0x0000000000401022  flags=(IsInteger|IsMicroop|IsDelayedCommit|IsFirstMicroop)
2139192: board.processor.cores.core: A0 T0 : 0x401020 @__libc_start_main+80. 1 :   JZ_I : limm   t2, 0xc    : IntAlu :  D=0x000000000000000c  flags=(IsInteger|IsMicroop|IsDelayedCommit)
2139192: board.processor.cores.core: A0 T0 : 0x401020 @__libc_start_main+80. 2 :   JZ_I : wrip   t1, t2     : IntAlu :   flags=(IsInteger|IsControl|IsDirectControl|IsCondControl|IsMicroop|IsLastMicroop)
2223774: board.processor.cores.core: A0 T0 : 0x40102e @__libc_start_main+94    : cmp	ebx, 0x68747541       
2223774: board.processor.cores.core: A0 T0 : 0x40102e @__libc_start_main+94. 0 :   CMP_R_I : limm   t1d, 0x68747541 : IntAlu :  D=0x0000000068747541  flags=(IsInteger|IsMicroop|IsDelayedCommit|IsFirstMicroop)
2223774: board.processor.cores.core: A0 T0 : 0x40102e @__libc_start_main+94. 1 :   CMP_R_I : sub   t0d, ebx, t1d : IntAlu :  D=0x0000000000000000  flags=(IsInteger|IsMicroop|IsLastMicroop)
2308356: board.processor.cores.core: A0 T0 : 0x401034 @__libc_start_main+100    : mov	SS:[t0 + rsp + 0x8], r9
2308356: board.processor.cores.core: A0 T0 : 0x401034 @__libc_start_main+100. 0 :   MOV_M_R : st   r9, SS:[t0 + rsp + 0x8] : MemWrite :  D=0x0000000000000000 A=0x7fffffffedd8  flags=(IsInteger|IsStore|IsMicroop|IsLastMicroop|IsFirstMicroop)
2378286: board.processor.cores.core: A0 T0 : 0x401039 @__libc_start_main+105    : mov	SS:[t0 + rsp], r8     
2378286: board.processor.cores.core: A0 T0 : 0x401039 @__libc_start_main+105. 0 :   MOV_M_R : st   r8, SS:[t0 + rsp] : MemWrite :  D=0x0000000000401730 A=0x7fffffffedd0  flags=(IsInteger|IsStore|IsMicroop|IsLastMicroop|IsFirstMicroop)
2476854: board.processor.cores.core: A0 T0 : 0x40103d @__libc_start_main+109    : setz	                     
2476854: board.processor.cores.core: A0 T0 : 0x40103d @__libc_start_main+109. 0 :   SETZ_R : movi   sil, sil, 0x1 : IntAlu :  D=0x0000000000000000  flags=(IsInteger|IsMicroop|IsDelayedCommit|IsFirstMicroop)
2476854: board.processor.cores.core: A0 T0 : 0x40103d @__libc_start_main+109. 1 :   SETZ_R : movi   sil, sil, 0 : IntAlu :  D=0x0000000000000000  flags=(IsInteger|IsMicroop|IsLastMicroop)
2519145: board.processor.cores.core: A0 T0 : 0x401041 @__libc_start_main+113    : cmp	ecx, 0x444d4163       
2519145: board.processor.cores.core: A0 T0 : 0x401041 @__libc_start_main+113. 0 :   CMP_R_I : limm   t1d, 0x444d4163 : IntAlu :  D=0x00000000444d4163  flags=(IsInteger|IsMicroop|IsDelayedCommit|IsFirstMicroop)
2519145: board.processor.cores.core: A0 T0 : 0x401041 @__libc_start_main+113. 1 :   CMP_R_I : sub   t0d, ecx, t1d : IntAlu :  D=0x0000000000000000  flags=(IsInteger|IsMicroop|IsLastMicroop)
2603727: board.processor.cores.core: A0 T0 : 0x401047 @__libc_start_main+119    : setz	                     
2603727: board.processor.cores.core: A0 T0 : 0x401047 @__libc_start_main+119. 0 :   SETZ_R : movi   al, al, 0x1 : IntAlu :  D=0x0000000000000000  flags=(IsInteger|IsMicroop|IsDelayedCommit|IsFirstMicroop)
2603727: board.processor.cores.core: A0 T0 : 0x401047 @__libc_start_main+119. 1 :   SETZ_R : movi   al, al, 0 : IntAlu :  D=0x0000000000000000  flags=(IsInteger|IsMicroop|IsLastMicroop)
2646018: board.processor.cores.core: A0 T0 : 0x40104a @__libc_start_main+122    : test	al                   
2646018: board.processor.cores.core: A0 T0 : 0x40104a @__libc_start_main+122. 0 :   TEST_R_R : and   t0b, sil, al : IntAlu :  D=0x0000000000000000  flags=(IsInteger|IsMicroop|IsLastMicroop|IsFirstMicroop)
2688309: board.processor.cores.core: A0 T0 : 0x40104d @__libc_start_main+125    : jz	0xc                    
2688309: board.processor.cores.core: A0 T0 : 0x40104d @__libc_start_main+125. 0 :   JZ_I : rdip   t1, t1     : IntAlu :  D=0x000000000040104f  flags=(IsInteger|IsMicroop|IsDelayedCommit|IsFirstMicroop)
2688309: board.processor.cores.core: A0 T0 : 0x40104d @__libc_start_main+125. 1 :   JZ_I : limm   t2, 0xc    : IntAlu :  D=0x000000000000000c  flags=(IsInteger|IsMicroop|IsDelayedCommit)
2688309: board.processor.cores.core: A0 T0 : 0x40104d @__libc_start_main+125. 2 :   JZ_I : wrip   t1, t2     : IntAlu :   flags=(IsInteger|IsControl|IsDirectControl|IsCondControl|IsMicroop|IsLastMicroop)
2730600: board.processor.cores.core: A0 T0 : 0x40105b @__libc_start_main+139    : xor	ecx                   
2730600: board.processor.cores.core: A0 T0 : 0x40105b @__libc_start_main+139. 0 :   XOR_R_R : xor   ecx, ecx, ecx : IntAlu :  D=0x0000000000000000  flags=(IsInteger|IsMicroop|IsLastMicroop|IsFirstMicroop)
2772891: board.processor.cores.core: A0 T0 : 0x40105d @__libc_start_main+141    : xor	edx                   
2772891: board.processor.cores.core: A0 T0 : 0x40105d @__libc_start_main+141. 0 :   XOR_R_R : xor   edx, edx, edx : IntAlu :  D=0x0000000000000000  flags=(IsInteger|IsMicroop|IsLastMicroop|IsFirstMicroop)
2857473: board.processor.cores.core: A0 T0 : 0x40105f @__libc_start_main+143    : xor	esi                   
2857473: board.processor.cores.core: A0 T0 : 0x40105f @__libc_start_main+143. 0 :   XOR_R_R : xor   esi, esi, esi : IntAlu :  D=0x0000000000000000  flags=(IsInteger|IsMicroop|IsLastMicroop|IsFirstMicroop)
2899764: board.processor.cores.core: A0 T0 : 0x401061 @__libc_start_main+145    : xor	edi                   
2899764: board.processor.cores.core: A0 T0 : 0x401061 @__libc_start_main+145. 0 :   XOR_R_R : xor   edi, edi, edi : IntAlu :  D=0x0000000000000000  flags=(IsInteger|IsMicroop|IsLastMicroop|IsFirstMicroop)
2942055: board.processor.cores.core: A0 T0 : 0x401063 @__libc_start_main+147    : call	0xfffffffffffffd08   
2942055: board.processor.cores.core: A0 T0 : 0x401063 @__libc_start_main+147. 0 :   CALL_NEAR_I : limm   t1, 0xfffffffffffffd08 : IntAlu :  D=0xfffffffffffffd08  flags=(IsInteger|IsMicroop|IsDelayedCommit|IsFirstMicroop)
2942055: board.processor.cores.core: A0 T0 : 0x401063 @__libc_start_main+147. 1 :   CALL_NEAR_I : rdip   t7, t7 : IntAlu :  D=0x0000000000401068  flags=(IsInteger|IsMicroop|IsDelayedCommit)
2942055: board.processor.cores.core: A0 T0 : 0x401063 @__libc_start_main+147. 2 :   CALL_NEAR_I : st   t7, SS:[rsp + 0xfffffffffffffff8] : MemWrite :  D=0x0000000000401068 A=0x7fffffffedc8  flags=(IsInteger|IsStore|IsMicroop|IsDelayedCommit)
2956041: board.processor.cores.core: A0 T0 : 0x401063 @__libc_start_main+147. 3 :   CALL_NEAR_I : subi   rsp, rsp, 0x8 : IntAlu :  D=0x00007fffffffedc8  flags=(IsInteger|IsMicroop|IsDelayedCommit)
2956041: board.processor.cores.core: A0 T0 : 0x401063 @__libc_start_main+147. 4 :   CALL_NEAR_I : wrip   t7, t1 : IntAlu :   flags=(IsInteger|IsControl|IsDirectControl|IsUncondControl|IsCall|IsMicroop|IsLastMicroop)
2998332: board.processor.cores.core: A0 T0 : 0x400d70 @get_common_indeces.constprop.1    : push	rbx                  
2998332: board.processor.cores.core: A0 T0 : 0x400d70 @get_common_indeces.constprop.1. 0 :   PUSH_R : st   rbx, SS:[t0 + rsp + 0xfffffffffffffff8] : MemWrite :  D=0x000000006f677948 A=0x7fffffffedc0  flags=(IsInteger|IsStore|IsMicroop|IsDelayedCommit|IsFirstMicroop)
3012318: board.processor.cores.core: A0 T0 : 0x400d70 @get_common_indeces.constprop.1. 1 :   PUSH_R : subi   rsp, rsp, 0x8 : IntAlu :  D=0x00007fffffffedc0  flags=(IsInteger|IsMicroop|IsLastMicroop)
3054609: board.processor.cores.core: A0 T0 : 0x400d71 @get_common_indeces.constprop.1+1    : sub	rsp, 0x88             
3054609: board.processor.cores.core: A0 T0 : 0x400d71 @get_common_indeces.constprop.1+1. 0 :   SUB_R_I : limm   t1, 0x88 : IntAlu :  D=0x0000000000000088  flags=(IsInteger|IsMicroop|IsDelayedCommit|IsFirstMicroop)
3054609: board.processor.cores.core: A0 T0 : 0x400d71 @get_common_indeces.constprop.1+1. 1 :   SUB_R_I : sub   rsp, rsp, t1 : IntAlu :  D=0x0000000000000000  flags=(IsInteger|IsMicroop|IsLastMicroop)
3110553: board.processor.cores.core: A0 T0 : 0x400d78 @get_common_indeces.constprop.1+8    : test	rdi                  
3110553: board.processor.cores.core: A0 T0 : 0x400d78 @get_common_indeces.constprop.1+8. 0 :   TEST_R_R : and   t0, rdi, rdi : IntAlu :  D=0x0000000000000000  flags=(IsInteger|IsMicroop|IsLastMicroop|IsFirstMicroop)
3152844: board.processor.cores.core: A0 T0 : 0x400d7b @get_common_indeces.constprop.1+11    : jz	0x58                   
3152844: board.processor.cores.core: A0 T0 : 0x400d7b @get_common_indeces.constprop.1+11. 0 :   JZ_I : rdip   t1, t1     : IntAlu :  D=0x0000000000400d7d  flags=(IsInteger|IsMicroop|IsDelayedCommit|IsFirstMicroop)
3152844: board.processor.cores.core: A0 T0 : 0x400d7b @get_common_indeces.constprop.1+11. 1 :   JZ_I : limm   t2, 0x58   : IntAlu :  D=0x0000000000000058  flags=(IsInteger|IsMicroop|IsDelayedCommit)
3152844: board.processor.cores.core: A0 T0 : 0x400d7b @get_common_indeces.constprop.1+11. 2 :   JZ_I : wrip   t1, t2     : IntAlu :   flags=(IsInteger|IsControl|IsDirectControl|IsCondControl|IsMicroop|IsLastMicroop)
3237426: board.processor.cores.core: A0 T0 : 0x400dd5 @get_common_indeces.constprop.1+101    : cmp	DS:[rip + 0x2b38a8], 0x6
3237426: board.processor.cores.core: A0 T0 : 0x400dd5 @get_common_indeces.constprop.1+101. 0 :   CMP_P_I : limm   t2d, 0x6 : IntAlu :  D=0x0000000000000006  flags=(IsInteger|IsMicroop|IsDelayedCommit|IsFirstMicroop)
3237426: board.processor.cores.core: A0 T0 : 0x400dd5 @get_common_indeces.constprop.1+101. 1 :   CMP_P_I : rdip   t7d, t7d : IntAlu :  D=0x0000000000400ddc  flags=(IsInteger|IsMicroop|IsDelayedCommit)
3237426: board.processor.cores.core: A0 T0 : 0x400dd5 @get_common_indeces.constprop.1+101. 2 :   CMP_P_I : ld   t1d, DS:[t0 + t7 + 0x2b38a8] : MemRead :  D=0x000000000000000d A=0x6b4684  flags=(IsInteger|IsLoad|IsMicroop|IsDelayedCommit)
3251079: board.processor.cores.core: A0 T0 : 0x400dd5 @get_common_indeces.constprop.1+101. 3 :   CMP_P_I : sub   t0d, t1d, t2d : IntAlu :  D=0x0000000000000000  flags=(IsInteger|IsMicroop|IsLastMicroop)
3293370: board.processor.cores.core: A0 T0 : 0x400ddc @get_common_indeces.constprop.1+108    : jle	0x21                  
3293370: board.processor.cores.core: A0 T0 : 0x400ddc @get_common_indeces.constprop.1+108. 0 :   JLE_I : rdip   t1, t1    : IntAlu :  D=0x0000000000400dde  flags=(IsInteger|IsMicroop|IsDelayedCommit|IsFirstMicroop)
3293370: board.processor.cores.core: A0 T0 : 0x400ddc @get_common_indeces.constprop.1+108. 1 :   JLE_I : limm   t2, 0x21  : IntAlu :  D=0x0000000000000021  flags=(IsInteger|IsMicroop|IsDelayedCommit)
3293370: board.processor.cores.core: A0 T0 : 0x400ddc @get_common_indeces.constprop.1+108. 2 :   JLE_I : wrip   t1, t2    : IntAlu :   flags=(IsInteger|IsControl|IsDirectControl|IsCondControl|IsMicroop|IsLastMicroop)
3377952: board.processor.cores.core: A0 T0 : 0x400dde @get_common_indeces.constprop.1+110    : mov	eax, 0x7              
3377952: board.processor.cores.core: A0 T0 : 0x400dde @get_common_indeces.constprop.1+110. 0 :   MOV_R_I : limm   eax, 0x7 : IntAlu :  D=0x0000000000000007  flags=(IsInteger|IsMicroop|IsLastMicroop|IsFirstMicroop)
3420243: board.processor.cores.core: A0 T0 : 0x400de3 @get_common_indeces.constprop.1+115    : xor	ecx                   
3420243: board.processor.cores.core: A0 T0 : 0x400de3 @get_common_indeces.constprop.1+115. 0 :   XOR_R_R : xor   ecx, ecx, ecx : IntAlu :  D=0x0000000000000000  flags=(IsInteger|IsMicroop|IsLastMicroop|IsFirstMicroop)
3462534: board.processor.cores.core: A0 T0 : 0x400de5 @get_common_indeces.constprop.1+117    :   CPUID                    : IntAlu :  D=0x0000000000000000  flags=(IsInteger|IsSerializing|IsSerializeAfter)
3547116: board.processor.cores.core: A0 T0 : 0x400de7 @get_common_indeces.constprop.1+119    : mov	DS:[rip + 0x2b38ab], eax
3547116: board.processor.cores.core: A0 T0 : 0x400de7 @get_common_indeces.constprop.1+119. 0 :   MOV_P_R : rdip   t7d, t7d : IntAlu :  D=0x0000000000400ded  flags=(IsInteger|IsMicroop|IsDelayedCommit|IsFirstMicroop)
3547116: board.processor.cores.core: A0 T0 : 0x400de7 @get_common_indeces.constprop.1+119. 1 :   MOV_P_R : st   eax, DS:[t0 + t7 + 0x2b38ab] : MemWrite :  D=0x0000000000000000 A=0x6b4698  flags=(IsInteger|IsStore|IsMicroop|IsLastMicroop)
3645684: board.processor.cores.core: A0 T0 : 0x400ded @get_common_indeces.constprop.1+125    : mov	DS:[rip + 0x2b38a9], ebx
3645684: board.processor.cores.core: A0 T0 : 0x400ded @get_common_indeces.constprop.1+125. 0 :   MOV_P_R : rdip   t7d, t7d : IntAlu :  D=0x0000000000400df3  flags=(IsInteger|IsMicroop|IsDelayedCommit|IsFirstMicroop)
3645684: board.processor.cores.core: A0 T0 : 0x400ded @get_common_indeces.constprop.1+125. 1 :   MOV_P_R : st   ebx, DS:[t0 + t7 + 0x2b38a9] : MemWrite :  D=0x0000000001800000 A=0x6b469c  flags=(IsInteger|IsStore|IsMicroop|IsLastMicroop)
3744252: board.processor.cores.core: A0 T0 : 0x400df3 @get_common_indeces.constprop.1+131    : mov	DS:[rip + 0x2b38a7], ecx
3744252: board.processor.cores.core: A0 T0 : 0x400df3 @get_common_indeces.constprop.1+131. 0 :   MOV_P_R : rdip   t7d, t7d : IntAlu :  D=0x0000000000400df9  flags=(IsInteger|IsMicroop|IsDelayedCommit|IsFirstMicroop)
3744252: board.processor.cores.core: A0 T0 : 0x400df3 @get_common_indeces.constprop.1+131. 1 :   MOV_P_R : st   ecx, DS:[t0 + t7 + 0x2b38a7] : MemWrite :  D=0x0000000000000000 A=0x6b46a0  flags=(IsInteger|IsStore|IsMicroop|IsLastMicroop)
3800529: board.processor.cores.core: A0 T0 : 0x400df9 @get_common_indeces.constprop.1+137    : mov	DS:[rip + 0x2b38a5], edx
3800529: board.processor.cores.core: A0 T0 : 0x400df9 @get_common_indeces.constprop.1+137. 0 :   MOV_P_R : rdip   t7d, t7d : IntAlu :  D=0x0000000000400dff  flags=(IsInteger|IsMicroop|IsDelayedCommit|IsFirstMicroop)
3800529: board.processor.cores.core: A0 T0 : 0x400df9 @get_common_indeces.constprop.1+137. 1 :   MOV_P_R : st   edx, DS:[t0 + t7 + 0x2b38a5] : MemWrite :  D=0x0000000000000000 A=0x6b46a4  flags=(IsInteger|IsStore|IsMicroop|IsLastMicroop)
3912750: board.processor.cores.core: A0 T0 : 0x400dff @get_common_indeces.constprop.1+143    : mov	esi, DS:[rip + 0x2b388b]
3912750: board.processor.cores.core: A0 T0 : 0x400dff @get_common_indeces.constprop.1+143. 0 :   MOV_R_P : rdip   t7d, t7d : IntAlu :  D=0x0000000000400e05  flags=(IsInteger|IsMicroop|IsDelayedCommit|IsFirstMicroop)
3912750: board.processor.cores.core: A0 T0 : 0x400dff @get_common_indeces.constprop.1+143. 1 :   MOV_R_P : ld   esi, DS:[t0 + t7 + 0x2b388b] : MemRead :  D=0x0000000000000000 A=0x6b4690  flags=(IsInteger|IsLoad|IsMicroop|IsLastMicroop)
4053276: board.processor.cores.core: A0 T0 : 0x400e05 @get_common_indeces.constprop.1+149    : test	esi, 0x8000000       
4053276: board.processor.cores.core: A0 T0 : 0x400e05 @get_common_indeces.constprop.1+149. 0 :   TEST_R_I : limm   t1d, 0x8000000 : IntAlu :  D=0x0000000008000000  flags=(IsInteger|IsMicroop|IsDelayedCommit|IsFirstMicroop)
4053276: board.processor.cores.core: A0 T0 : 0x400e05 @get_common_indeces.constprop.1+149. 1 :   TEST_R_I : and   t0d, esi, t1d : IntAlu :  D=0x0000000000000000  flags=(IsInteger|IsMicroop|IsLastMicroop)
4137858: board.processor.cores.core: A0 T0 : 0x400e0b @get_common_indeces.constprop.1+155    : jz	0x120                  
4137858: board.processor.cores.core: A0 T0 : 0x400e0b @get_common_indeces.constprop.1+155. 0 :   JZ_I : rdip   t1, t1     : IntAlu :  D=0x0000000000400e11  flags=(IsInteger|IsMicroop|IsDelayedCommit|IsFirstMicroop)
4137858: board.processor.cores.core: A0 T0 : 0x400e0b @get_common_indeces.constprop.1+155. 1 :   JZ_I : limm   t2, 0x120  : IntAlu :  D=0x0000000000000120  flags=(IsInteger|IsMicroop|IsDelayedCommit)
4137858: board.processor.cores.core: A0 T0 : 0x400e0b @get_common_indeces.constprop.1+155. 2 :   JZ_I : wrip   t1, t2     : IntAlu :   flags=(IsInteger|IsControl|IsDirectControl|IsCondControl|IsMicroop|IsLastMicroop)
4180149: board.processor.cores.core: A0 T0 : 0x400f31 @get_common_indeces.constprop.1+449    : add	rsp, 0x88             
4180149: board.processor.cores.core: A0 T0 : 0x400f31 @get_common_indeces.constprop.1+449. 0 :   ADD_R_I : limm   t1, 0x88 : IntAlu :  D=0x0000000000000088  flags=(IsInteger|IsMicroop|IsDelayedCommit|IsFirstMicroop)
4180149: board.processor.cores.core: A0 T0 : 0x400f31 @get_common_indeces.constprop.1+449. 1 :   ADD_R_I : add   rsp, rsp, t1 : IntAlu :  D=0x0000000000000000  flags=(IsInteger|IsMicroop|IsLastMicroop)
4222440: board.processor.cores.core: A0 T0 : 0x400f38 @get_common_indeces.constprop.1+456    : pop	rbx                   
4222440: board.processor.cores.core: A0 T0 : 0x400f38 @get_common_indeces.constprop.1+456. 0 :   POP_R : ld   t1, SS:[t0 + rsp] : MemRead :  D=0x000000006f677948 A=0x7fffffffedc0  flags=(IsInteger|IsLoad|IsMicroop|IsDelayedCommit|IsFirstMicroop)
4264731: board.processor.cores.core: A0 T0 : 0x400f38 @get_common_indeces.constprop.1+456. 1 :   POP_R : addi   rsp, rsp, 0x8 : IntAlu :  D=0x00007fffffffedc8  flags=(IsInteger|IsMicroop|IsDelayedCommit)
4264731: board.processor.cores.core: A0 T0 : 0x400f38 @get_common_indeces.constprop.1+456. 2 :   POP_R : mov   rbx, rbx, t1 : IntAlu :  D=0x000000006f677948  flags=(IsInteger|IsMicroop|IsLastMicroop)
4307022: board.processor.cores.core: A0 T0 : 0x400f39 @get_common_indeces.constprop.1+457    : ret	                      
4307022: board.processor.cores.core: A0 T0 : 0x400f39 @get_common_indeces.constprop.1+457. 0 :   RET_NEAR : ld   t1, SS:[t0 + rsp] : MemRead :  D=0x0000000000401068 A=0x7fffffffedc8  flags=(IsInteger|IsLoad|IsMicroop|IsDelayedCommit|IsFirstMicroop)
4349313: board.processor.cores.core: A0 T0 : 0x400f39 @get_common_indeces.constprop.1+457. 1 :   RET_NEAR : addi   rsp, rsp, 0x8 : IntAlu :  D=0x00007fffffffedd0  flags=(IsInteger|IsMicroop|IsDelayedCommit)
4349313: board.processor.cores.core: A0 T0 : 0x400f39 @get_common_indeces.constprop.1+457. 2 :   RET_NEAR : wripi   t1, 0 : IntAlu :   flags=(IsInteger|IsControl|IsIndirectControl|IsUncondControl|IsReturn|IsMicroop|IsLastMicroop)
4391604: board.processor.cores.core: A0 T0 : 0x401068 @__libc_start_main+152    : mov	rcx, SS:[t0 + rsp + 0x14]
4391604: board.processor.cores.core: A0 T0 : 0x401068 @__libc_start_main+152. 0 :   MOV_R_M : ld   ecx, SS:[t0 + rsp + 0x14] : MemRead :  D=0x0000000000000000 A=0x7fffffffede4  flags=(IsInteger|IsLoad|IsMicroop|IsLastMicroop|IsFirstMicroop)
4518477: board.processor.cores.core: A0 T0 : 0x40106c @__libc_start_main+156    : mov	r9, SS:[t0 + rsp + 0x8]
4518477: board.processor.cores.core: A0 T0 : 0x40106c @__libc_start_main+156. 0 :   MOV_R_M : ld   r9, SS:[t0 + rsp + 0x8] : MemRead :  D=0x0000000000000000 A=0x7fffffffedd8  flags=(IsInteger|IsLoad|IsMicroop|IsLastMicroop|IsFirstMicroop)
4603059: board.processor.cores.core: A0 T0 : 0x401071 @__libc_start_main+161    : mov	edx, 0x3              
4603059: board.processor.cores.core: A0 T0 : 0x401071 @__libc_start_main+161. 0 :   MOV_R_I : limm   edx, 0x3 : IntAlu :  D=0x0000000000000003  flags=(IsInteger|IsMicroop|IsLastMicroop|IsFirstMicroop)
4687641: board.processor.cores.core: A0 T0 : 0x401076 @__libc_start_main+166    : mov	r8, SS:[t0 + rsp]     
4687641: board.processor.cores.core: A0 T0 : 0x401076 @__libc_start_main+166. 0 :   MOV_R_M : ld   r8, SS:[t0 + rsp] : MemRead :  D=0x0000000000401730 A=0x7fffffffedd0  flags=(IsInteger|IsLoad|IsMicroop|IsLastMicroop|IsFirstMicroop)
4772223: board.processor.cores.core: A0 T0 : 0x40107a @__libc_start_main+170    : mov	eax, DS:[rip + 0x2b3614]
4772223: board.processor.cores.core: A0 T0 : 0x40107a @__libc_start_main+170. 0 :   MOV_R_P : rdip   t7d, t7d : IntAlu :  D=0x0000000000401080  flags=(IsInteger|IsMicroop|IsDelayedCommit|IsFirstMicroop)
4772223: board.processor.cores.core: A0 T0 : 0x40107a @__libc_start_main+170. 1 :   MOV_R_P : ld   eax, DS:[t0 + t7 + 0x2b3614] : MemRead :  D=0x0000000000000000 A=0x6b4694  flags=(IsInteger|IsLoad|IsMicroop|IsLastMicroop)
4870458: board.processor.cores.core: A0 T0 : 0x401080 @__libc_start_main+176    : test	spl, 0x1             
4870458: board.processor.cores.core: A0 T0 : 0x401080 @__libc_start_main+176. 0 :   TEST_R_I : limm   t1b, 0x1 : IntAlu :  D=0x0000000000401001  flags=(IsInteger|IsMicroop|IsDelayedCommit|IsFirstMicroop)
4870458: board.processor.cores.core: A0 T0 : 0x401080 @__libc_start_main+176. 1 :   TEST_R_I : and   t0b, ah, t1b : IntAlu :  D=0x0000000000000000  flags=(IsInteger|IsMicroop|IsLastMicroop)
4912749: board.processor.cores.core: A0 T0 : 0x401083 @__libc_start_main+179    : jz	0xa                    
4912749: board.processor.cores.core: A0 T0 : 0x401083 @__libc_start_main+179. 0 :   JZ_I : rdip   t1, t1     : IntAlu :  D=0x0000000000401085  flags=(IsInteger|IsMicroop|IsDelayedCommit|IsFirstMicroop)
4912749: board.processor.cores.core: A0 T0 : 0x401083 @__libc_start_main+179. 1 :   JZ_I : limm   t2, 0xa    : IntAlu :  D=0x000000000000000a  flags=(IsInteger|IsMicroop|IsDelayedCommit)
4912749: board.processor.cores.core: A0 T0 : 0x401083 @__libc_start_main+179. 2 :   JZ_I : wrip   t1, t2     : IntAlu :   flags=(IsInteger|IsControl|IsDirectControl|IsCondControl|IsMicroop|IsLastMicroop)
4997331: board.processor.cores.core: A0 T0 : 0x40108f @__libc_start_main+191    : test	spl, 0xffffffffffffff80
4997331: board.processor.cores.core: A0 T0 : 0x40108f @__libc_start_main+191. 0 :   TEST_R_I : limm   t1b, 0xffffffffffffff80 : IntAlu :  D=0x0000000000401080  flags=(IsInteger|IsMicroop|IsDelayedCommit|IsFirstMicroop)
4997331: board.processor.cores.core: A0 T0 : 0x40108f @__libc_start_main+191. 1 :   TEST_R_I : and   t0b, ah, t1b : IntAlu :  D=0x0000000000000000  flags=(IsInteger|IsMicroop|IsLastMicroop)
5039622: board.processor.cores.core: A0 T0 : 0x401092 @__libc_start_main+194    : jz	0xa                    
5039622: board.processor.cores.core: A0 T0 : 0x401092 @__libc_start_main+194. 0 :   JZ_I : rdip   t1, t1     : IntAlu :  D=0x0000000000401094  flags=(IsInteger|IsMicroop|IsDelayedCommit|IsFirstMicroop)
5039622: board.processor.cores.core: A0 T0 : 0x401092 @__libc_start_main+194. 1 :   JZ_I : limm   t2, 0xa    : IntAlu :  D=0x000000000000000a  flags=(IsInteger|IsMicroop|IsDelayedCommit)
5039622: board.processor.cores.core: A0 T0 : 0x401092 @__libc_start_main+194. 2 :   JZ_I : wrip   t1, t2     : IntAlu :   flags=(IsInteger|IsControl|IsDirectControl|IsCondControl|IsMicroop|IsLastMicroop)
5124204: board.processor.cores.core: A0 T0 : 0x40109e @__libc_start_main+206    : cmp	edx, 0x1              
5124204: board.processor.cores.core: A0 T0 : 0x40109e @__libc_start_main+206. 0 :   CMP_R_I : limm   t1d, 0x1 : IntAlu :  D=0x0000000000000001  flags=(IsInteger|IsMicroop|IsDelayedCommit|IsFirstMicroop)
5124204: board.processor.cores.core: A0 T0 : 0x40109e @__libc_start_main+206. 1 :   CMP_R_I : sub   t0d, edx, t1d : IntAlu :  D=0x0000000000000000  flags=(IsInteger|IsMicroop|IsLastMicroop)
5166495: board.processor.cores.core: A0 T0 : 0x4010a1 @__libc_start_main+209    : jz	0x2f                   
5166495: board.processor.cores.core: A0 T0 : 0x4010a1 @__libc_start_main+209. 0 :   JZ_I : rdip   t1, t1     : IntAlu :  D=0x00000000004010a3  flags=(IsInteger|IsMicroop|IsDelayedCommit|IsFirstMicroop)
5166495: board.processor.cores.core: A0 T0 : 0x4010a1 @__libc_start_main+209. 1 :   JZ_I : limm   t2, 0x2f   : IntAlu :  D=0x000000000000002f  flags=(IsInteger|IsMicroop|IsDelayedCommit)
5166495: board.processor.cores.core: A0 T0 : 0x4010a1 @__libc_start_main+209. 2 :   JZ_I : wrip   t1, t2     : IntAlu :   flags=(IsInteger|IsControl|IsDirectControl|IsCondControl|IsMicroop|IsLastMicroop)
5208786: board.processor.cores.core: A0 T0 : 0x4010a3 @__libc_start_main+211    : mov	rax, SS:[t0 + rsp + 0x10]
5208786: board.processor.cores.core: A0 T0 : 0x4010a3 @__libc_start_main+211. 0 :   MOV_R_M : ld   eax, SS:[t0 + rsp + 0x10] : MemRead :  D=0x0000000000000000 A=0x7fffffffede0  flags=(IsInteger|IsLoad|IsMicroop|IsLastMicroop|IsFirstMicroop)
5335659: board.processor.cores.core: A0 T0 : 0x4010a7 @__libc_start_main+215    : sub	rsp, 0x8              
5335659: board.processor.cores.core: A0 T0 : 0x4010a7 @__libc_start_main+215. 0 :   SUB_R_I : limm   t1, 0x8 : IntAlu :  D=0x0000000000000008  flags=(IsInteger|IsMicroop|IsDelayedCommit|IsFirstMicroop)
5335659: board.processor.cores.core: A0 T0 : 0x4010a7 @__libc_start_main+215. 1 :   SUB_R_I : sub   rsp, rsp, t1 : IntAlu :  D=0x0000000000000000  flags=(IsInteger|IsMicroop|IsLastMicroop)
5377950: board.processor.cores.core: A0 T0 : 0x4010ab @__libc_start_main+219    : mov	r12d                  
5377950: board.processor.cores.core: A0 T0 : 0x4010ab @__libc_start_main+219. 0 :   MOV_R_R : mov   esi, esi, r12d : IntAlu :  D=0x0000000000000001  flags=(IsInteger|IsMicroop|IsLastMicroop|IsFirstMicroop)
5462532: board.processor.cores.core: A0 T0 : 0x4010ae @__libc_start_main+222    : push	SS:[t0 + rsp + 0x58] 
5462532: board.processor.cores.core: A0 T0 : 0x4010ae @__libc_start_main+222. 0 :   PUSH_M : ld   t1, SS:[t0 + rsp + 0x58] : MemRead :  D=0x00007fffffffee28 A=0x7fffffffee20  flags=(IsInteger|IsLoad|IsMicroop|IsDelayedCommit|IsFirstMicroop)
5504823: board.processor.cores.core: A0 T0 : 0x4010ae @__libc_start_main+222. 1 :   PUSH_M : st   t1, SS:[t0 + rsp + 0xfffffffffffffff8] : MemWrite :  D=0x00007fffffffee28 A=0x7fffffffedc0  flags=(IsInteger|IsStore|IsMicroop|IsDelayedCommit)
5518809: board.processor.cores.core: A0 T0 : 0x4010ae @__libc_start_main+222. 2 :   PUSH_M : subi   rsp, rsp, 0x8 : IntAlu :  D=0x00007fffffffedc0  flags=(IsInteger|IsMicroop|IsLastMicroop)
5561100: board.processor.cores.core: A0 T0 : 0x4010b2 @__libc_start_main+226    : mov	rbp                   
5561100: board.processor.cores.core: A0 T0 : 0x4010b2 @__libc_start_main+226. 0 :   MOV_R_R : mov   rdi, rdi, rbp : IntAlu :  D=0x0000000000400aae  flags=(IsInteger|IsMicroop|IsLastMicroop|IsFirstMicroop)
5659335: board.processor.cores.core: A0 T0 : 0x4010b5 @__libc_start_main+229    : mov	DS:[rip + 0x2b3601], ecx
5659335: board.processor.cores.core: A0 T0 : 0x4010b5 @__libc_start_main+229. 0 :   MOV_P_R : rdip   t7d, t7d : IntAlu :  D=0x00000000004010bb  flags=(IsInteger|IsMicroop|IsDelayedCommit|IsFirstMicroop)
5659335: board.processor.cores.core: A0 T0 : 0x4010b5 @__libc_start_main+229. 1 :   MOV_P_R : st   ecx, DS:[t0 + t7 + 0x2b3601] : MemWrite :  D=0x0000000000000000 A=0x6b46bc  flags=(IsInteger|IsStore|IsMicroop|IsLastMicroop)
5757903: board.processor.cores.core: A0 T0 : 0x4010bb @__libc_start_main+235    : mov	DS:[rip + 0x2b35bf], edx
5757903: board.processor.cores.core: A0 T0 : 0x4010bb @__libc_start_main+235. 0 :   MOV_P_R : rdip   t7d, t7d : IntAlu :  D=0x00000000004010c1  flags=(IsInteger|IsMicroop|IsDelayedCommit|IsFirstMicroop)
5757903: board.processor.cores.core: A0 T0 : 0x4010bb @__libc_start_main+235. 1 :   MOV_P_R : st   edx, DS:[t0 + t7 + 0x2b35bf] : MemWrite :  D=0x0000000000000003 A=0x6b4680  flags=(IsInteger|IsStore|IsMicroop|IsLastMicroop)
5814180: board.processor.cores.core: A0 T0 : 0x4010c1 @__libc_start_main+241    : mov	r14                   
5814180: board.processor.cores.core: A0 T0 : 0x4010c1 @__libc_start_main+241. 0 :   MOV_R_R : mov   rcx, rcx, r14 : IntAlu :  D=0x00000000004016a0  flags=(IsInteger|IsMicroop|IsLastMicroop|IsFirstMicroop)
5856471: board.processor.cores.core: A0 T0 : 0x4010c4 @__libc_start_main+244    : mov	r13                   
5856471: board.processor.cores.core: A0 T0 : 0x4010c4 @__libc_start_main+244. 0 :   MOV_R_R : mov   rdx, rdx, r13 : IntAlu :  D=0x00007fffffffee38  flags=(IsInteger|IsMicroop|IsLastMicroop|IsFirstMicroop)
5941053: board.processor.cores.core: A0 T0 : 0x4010c7 @__libc_start_main+247    : mov	DS:[rip + 0x2b35eb], eax
5941053: board.processor.cores.core: A0 T0 : 0x4010c7 @__libc_start_main+247. 0 :   MOV_P_R : rdip   t7d, t7d : IntAlu :  D=0x00000000004010cd  flags=(IsInteger|IsMicroop|IsDelayedCommit|IsFirstMicroop)
5941053: board.processor.cores.core: A0 T0 : 0x4010c7 @__libc_start_main+247. 1 :   MOV_P_R : st   eax, DS:[t0 + t7 + 0x2b35eb] : MemWrite :  D=0x0000000000000000 A=0x6b46b8  flags=(IsInteger|IsStore|IsMicroop|IsLastMicroop)
6039621: board.processor.cores.core: A0 T0 : 0x4010cd @__libc_start_main+253    : call	0xfffffffffffff9fe   
6039621: board.processor.cores.core: A0 T0 : 0x4010cd @__libc_start_main+253. 0 :   CALL_NEAR_I : limm   t1, 0xfffffffffffff9fe : IntAlu :  D=0xfffffffffffff9fe  flags=(IsInteger|IsMicroop|IsDelayedCommit|IsFirstMicroop)
6039621: board.processor.cores.core: A0 T0 : 0x4010cd @__libc_start_main+253. 1 :   CALL_NEAR_I : rdip   t7, t7 : IntAlu :  D=0x00000000004010d2  flags=(IsInteger|IsMicroop|IsDelayedCommit)
6039621: board.processor.cores.core: A0 T0 : 0x4010cd @__libc_start_main+253. 2 :   CALL_NEAR_I : st   t7, SS:[rsp + 0xfffffffffffffff8] : MemWrite :  D=0x00000000004010d2 A=0x7fffffffedb8  flags=(IsInteger|IsStore|IsMicroop|IsDelayedCommit)
6053607: board.processor.cores.core: A0 T0 : 0x4010cd @__libc_start_main+253. 3 :   CALL_NEAR_I : subi   rsp, rsp, 0x8 : IntAlu :  D=0x00007fffffffedb8  flags=(IsInteger|IsMicroop|IsDelayedCommit)
6053607: board.processor.cores.core: A0 T0 : 0x4010cd @__libc_start_main+253. 4 :   CALL_NEAR_I : wrip   t7, t1 : IntAlu :   flags=(IsInteger|IsControl|IsDirectControl|IsUncondControl|IsCall|IsMicroop|IsLastMicroop)
6095898: board.processor.cores.core: A0 T0 : 0x400ad0 @generic_start_main    : push	r14                  
6095898: board.processor.cores.core: A0 T0 : 0x400ad0 @generic_start_main. 0 :   PUSH_R : st   r14, SS:[t0 + rsp + 0xfffffffffffffff8] : MemWrite :  D=0x00000000004016a0 A=0x7fffffffedb0  flags=(IsInteger|IsStore|IsMicroop|IsDelayedCommit|IsFirstMicroop)
6109884: board.processor.cores.core: A0 T0 : 0x400ad0 @generic_start_main. 1 :   PUSH_R : subi   rsp, rsp, 0x8 : IntAlu :  D=0x00007fffffffedb0  flags=(IsInteger|IsMicroop|IsLastMicroop)
6152175: board.processor.cores.core: A0 T0 : 0x400ad2 @generic_start_main+2    : push	r13                  
6152175: board.processor.cores.core: A0 T0 : 0x400ad2 @generic_start_main+2. 0 :   PUSH_R : st   r13, SS:[t0 + rsp + 0xfffffffffffffff8] : MemWrite :  D=0x00007fffffffee38 A=0x7fffffffeda8  flags=(IsInteger|IsStore|IsMicroop|IsDelayedCommit|IsFirstMicroop)
6166161: board.processor.cores.core: A0 T0 : 0x400ad2 @generic_start_main+2. 1 :   PUSH_R : subi   rsp, rsp, 0x8 : IntAlu :  D=0x00007fffffffeda8  flags=(IsInteger|IsMicroop|IsLastMicroop)
6250743: board.processor.cores.core: A0 T0 : 0x400ad4 @generic_start_main+4    : mov	eax, 0                
6250743: board.processor.cores.core: A0 T0 : 0x400ad4 @generic_start_main+4. 0 :   MOV_R_I : limm   eax, 0  : IntAlu :  D=0x0000000000000000  flags=(IsInteger|IsMicroop|IsLastMicroop|IsFirstMicroop)
6293034: board.processor.cores.core: A0 T0 : 0x400ad9 @generic_start_main+9    : push	r12                  
6293034: board.processor.cores.core: A0 T0 : 0x400ad9 @generic_start_main+9. 0 :   PUSH_R : st   r12, SS:[t0 + rsp + 0xfffffffffffffff8] : MemWrite :  D=0x0000000000000001 A=0x7fffffffeda0  flags=(IsInteger|IsStore|IsMicroop|IsDelayedCommit|IsFirstMicroop)
6307020: board.processor.cores.core: A0 T0 : 0x400ad9 @generic_start_main+9. 1 :   PUSH_R : subi   rsp, rsp, 0x8 : IntAlu :  D=0x00007fffffffeda0  flags=(IsInteger|IsMicroop|IsLastMicroop)
6349311: board.processor.cores.core: A0 T0 : 0x400adb @generic_start_main+11    : push	rbp                  
6349311: board.processor.cores.core: A0 T0 : 0x400adb @generic_start_main+11. 0 :   PUSH_R : st   rbp, SS:[t0 + rsp + 0xfffffffffffffff8] : MemWrite :  D=0x0000000000400aae A=0x7fffffffed98  flags=(IsInteger|IsStore|IsMicroop|IsDelayedCommit|IsFirstMicroop)
6363297: board.processor.cores.core: A0 T0 : 0x400adb @generic_start_main+11. 1 :   PUSH_R : subi   rsp, rsp, 0x8 : IntAlu :  D=0x00007fffffffed98  flags=(IsInteger|IsMicroop|IsLastMicroop)
6405588: board.processor.cores.core: A0 T0 : 0x400adc @generic_start_main+12    : mov	rcx                   
6405588: board.processor.cores.core: A0 T0 : 0x400adc @generic_start_main+12. 0 :   MOV_R_R : mov   r12, r12, rcx : IntAlu :  D=0x00000000004016a0  flags=(IsInteger|IsMicroop|IsLastMicroop|IsFirstMicroop)
6461532: board.processor.cores.core: A0 T0 : 0x400adf @generic_start_main+15    : push	rbx                  
6461532: board.processor.cores.core: A0 T0 : 0x400adf @generic_start_main+15. 0 :   PUSH_R : st   rbx, SS:[t0 + rsp + 0xfffffffffffffff8] : MemWrite :  D=0x000000006f677948 A=0x7fffffffed90  flags=(IsInteger|IsStore|IsMicroop|IsDelayedCommit|IsFirstMicroop)
6475518: board.processor.cores.core: A0 T0 : 0x400adf @generic_start_main+15. 1 :   PUSH_R : subi   rsp, rsp, 0x8 : IntAlu :  D=0x00007fffffffed90  flags=(IsInteger|IsMicroop|IsLastMicroop)
6517809: board.processor.cores.core: A0 T0 : 0x400ae0 @generic_start_main+16    : mov	r8                    
6517809: board.processor.cores.core: A0 T0 : 0x400ae0 @generic_start_main+16. 0 :   MOV_R_R : mov   r13, r13, r8 : IntAlu :  D=0x0000000000401730  flags=(IsInteger|IsMicroop|IsLastMicroop|IsFirstMicroop)
6560100: board.processor.cores.core: A0 T0 : 0x400ae3 @generic_start_main+19    : mov	r9                    
6560100: board.processor.cores.core: A0 T0 : 0x400ae3 @generic_start_main+19. 0 :   MOV_R_R : mov   r14, r14, r9 : IntAlu :  D=0x0000000000000000  flags=(IsInteger|IsMicroop|IsLastMicroop|IsFirstMicroop)
6644682: board.processor.cores.core: A0 T0 : 0x400ae6 @generic_start_main+22    : sub	rsp, 0x90             
6644682: board.processor.cores.core: A0 T0 : 0x400ae6 @generic_start_main+22. 0 :   SUB_R_I : limm   t1, 0x90 : IntAlu :  D=0x0000000000000090  flags=(IsInteger|IsMicroop|IsDelayedCommit|IsFirstMicroop)
6644682: board.processor.cores.core: A0 T0 : 0x400ae6 @generic_start_main+22. 1 :   SUB_R_I : sub   rsp, rsp, t1 : IntAlu :  D=0x0000000000000000  flags=(IsInteger|IsMicroop|IsLastMicroop)
6686973: board.processor.cores.core: A0 T0 : 0x400aed @generic_start_main+29    : test	rax                  
6686973: board.processor.cores.core: A0 T0 : 0x400aed @generic_start_main+29. 0 :   TEST_R_R : and   t0, rax, rax : IntAlu :  D=0x0000000000000000  flags=(IsInteger|IsMicroop|IsLastMicroop|IsFirstMicroop)
6729264: board.processor.cores.core: A0 T0 : 0x400af0 @generic_start_main+32    : mov	SS:[t0 + rsp + 0x18], rdi
6729264: board.processor.cores.core: A0 T0 : 0x400af0 @generic_start_main+32. 0 :   MOV_M_R : st   rdi, SS:[t0 + rsp + 0x18] : MemWrite :  D=0x0000000000400aae A=0x7fffffffed18  flags=(IsInteger|IsStore|IsMicroop|IsLastMicroop|IsFirstMicroop)
6827832: board.processor.cores.core: A0 T0 : 0x400af5 @generic_start_main+37    : mov	SS:[t0 + rsp + 0xc], rsi
6827832: board.processor.cores.core: A0 T0 : 0x400af5 @generic_start_main+37. 0 :   MOV_M_R : st   esi, SS:[t0 + rsp + 0xc] : MemWrite :  D=0x0000000000000001 A=0x7fffffffed0c  flags=(IsInteger|IsStore|IsMicroop|IsLastMicroop|IsFirstMicroop)
6884109: board.processor.cores.core: A0 T0 : 0x400af9 @generic_start_main+41    : mov	SS:[t0 + rsp + 0x10], rdx
6884109: board.processor.cores.core: A0 T0 : 0x400af9 @generic_start_main+41. 0 :   MOV_M_R : st   rdx, SS:[t0 + rsp + 0x10] : MemWrite :  D=0x00007fffffffee38 A=0x7fffffffed10  flags=(IsInteger|IsStore|IsMicroop|IsLastMicroop|IsFirstMicroop)
6982677: board.processor.cores.core: A0 T0 : 0x400afe @generic_start_main+46    : jz	0x12d                  
6982677: board.processor.cores.core: A0 T0 : 0x400afe @generic_start_main+46. 0 :   JZ_I : rdip   t1, t1     : IntAlu :  D=0x0000000000400b04  flags=(IsInteger|IsMicroop|IsDelayedCommit|IsFirstMicroop)
6982677: board.processor.cores.core: A0 T0 : 0x400afe @generic_start_main+46. 1 :   JZ_I : limm   t2, 0x12d  : IntAlu :  D=0x000000000000012d  flags=(IsInteger|IsMicroop|IsDelayedCommit)
6982677: board.processor.cores.core: A0 T0 : 0x400afe @generic_start_main+46. 2 :   JZ_I : wrip   t1, t2     : IntAlu :   flags=(IsInteger|IsControl|IsDirectControl|IsCondControl|IsMicroop|IsLastMicroop)
7024968: board.processor.cores.core: A0 T0 : 0x400c31 @generic_start_main+353    : xor	eax                   
7024968: board.processor.cores.core: A0 T0 : 0x400c31 @generic_start_main+353. 0 :   XOR_R_R : xor   eax, eax, eax : IntAlu :  D=0x0000000000000000  flags=(IsInteger|IsMicroop|IsLastMicroop|IsFirstMicroop)
7067259: board.processor.cores.core: A0 T0 : 0x400c33 @generic_start_main+355    : jmp	0xfffffffffffffed7    
7067259: board.processor.cores.core: A0 T0 : 0x400c33 @generic_start_main+355. 0 :   JMP_I : rdip   t1, t1    : IntAlu :  D=0x0000000000400c38  flags=(IsInteger|IsMicroop|IsDelayedCommit|IsFirstMicroop)
7067259: board.processor.cores.core: A0 T0 : 0x400c33 @generic_start_main+355. 1 :   JMP_I : limm   t2, 0xfffffffffffffed7 : IntAlu :  D=0xfffffffffffffed7  flags=(IsInteger|IsMicroop|IsDelayedCommit)
7067259: board.processor.cores.core: A0 T0 : 0x400c33 @generic_start_main+355. 2 :   JMP_I : wrip   t1, t2    : IntAlu :   flags=(IsInteger|IsControl|IsDirectControl|IsUncondControl|IsMicroop|IsLastMicroop)
7151841: board.processor.cores.core: A0 T0 : 0x400b0f @generic_start_main+63    : movzx	eax                 
7151841: board.processor.cores.core: A0 T0 : 0x400b0f @generic_start_main+63. 0 :   MOVZX_B_R_R : mov   t1b, t1b, al : IntAlu :  D=0x0000000000400c00  flags=(IsInteger|IsMicroop|IsDelayedCommit|IsFirstMicroop)
7151841: board.processor.cores.core: A0 T0 : 0x400b0f @generic_start_main+63. 1 :   MOVZX_B_R_R : zexti   eax, t1d, 0x7 : IntAlu :  D=0x0000000000000000  flags=(IsInteger|IsMicroop|IsLastMicroop)
7207785: board.processor.cores.core: A0 T0 : 0x400b12 @generic_start_main+66    : mov	rcx, SS:[t0 + rsp + 0x10]
7207785: board.processor.cores.core: A0 T0 : 0x400b12 @generic_start_main+66. 0 :   MOV_R_M : ld   rcx, SS:[t0 + rsp + 0x10] : MemRead :  D=0x00007fffffffee38 A=0x7fffffffed10  flags=(IsInteger|IsLoad|IsMicroop|IsLastMicroop|IsFirstMicroop)
7334658: board.processor.cores.core: A0 T0 : 0x400b17 @generic_start_main+71    : mov	DS:[rip + 0x2b2be3], eax
7334658: board.processor.cores.core: A0 T0 : 0x400b17 @generic_start_main+71. 0 :   MOV_P_R : rdip   t7d, t7d : IntAlu :  D=0x0000000000400b1d  flags=(IsInteger|IsMicroop|IsDelayedCommit|IsFirstMicroop)
7334658: board.processor.cores.core: A0 T0 : 0x400b17 @generic_start_main+71. 1 :   MOV_P_R : st   eax, DS:[t0 + t7 + 0x2b2be3] : MemWrite :  D=0x0000000000000000 A=0x6b3700  flags=(IsInteger|IsStore|IsMicroop|IsLastMicroop)
7433226: board.processor.cores.core: A0 T0 : 0x400b1d @generic_start_main+77    : movsxd	rax, SS:[t0 + rsp + 0xc]
7433226: board.processor.cores.core: A0 T0 : 0x400b1d @generic_start_main+77. 0 :   MOVSXD_R_M : ld   t1d, SS:[t0 + rsp + 0xc] : MemRead :  D=0x0000000000000001 A=0x7fffffffed0c  flags=(IsInteger|IsLoad|IsMicroop|IsDelayedCommit|IsFirstMicroop)
7475517: board.processor.cores.core: A0 T0 : 0x400b1d @generic_start_main+77. 1 :   MOVSXD_R_M : sexti   rax, t1, 0x1f : IntAlu :  D=0x0000000000000001  flags=(IsInteger|IsMicroop|IsLastMicroop)
7517808: board.processor.cores.core: A0 T0 : 0x400b22 @generic_start_main+82    : lea	rdi, DS:[8*rax + rcx + 0x8]
7517808: board.processor.cores.core: A0 T0 : 0x400b22 @generic_start_main+82. 0 :   LEA_R_M : lea   rdi, DS:[8*rax + rcx + 0x8] : IntAlu :  D=0x00007fffffffee48  flags=(IsInteger|IsMicroop|IsLastMicroop|IsFirstMicroop)
7602390: board.processor.cores.core: A0 T0 : 0x400b27 @generic_start_main+87    : mov	rax, SS:[t0 + rsp + 0xc0]
7602390: board.processor.cores.core: A0 T0 : 0x400b27 @generic_start_main+87. 0 :   MOV_R_M : ld   rax, SS:[t0 + rsp + 0xc0] : MemRead :  D=0x00007fffffffee28 A=0x7fffffffedc0  flags=(IsInteger|IsLoad|IsMicroop|IsLastMicroop|IsFirstMicroop)
7729263: board.processor.cores.core: A0 T0 : 0x400b2f @generic_start_main+95    : mov	DS:[rip + 0x2b3b0a], rdi
7729263: board.processor.cores.core: A0 T0 : 0x400b2f @generic_start_main+95. 0 :   MOV_P_R : rdip   t7, t7  : IntAlu :  D=0x0000000000400b36  flags=(IsInteger|IsMicroop|IsDelayedCommit|IsFirstMicroop)
7729263: board.processor.cores.core: A0 T0 : 0x400b2f @generic_start_main+95. 1 :   MOV_P_R : st   rdi, DS:[t0 + t7 + 0x2b3b0a] : MemWrite :  D=0x00007fffffffee48 A=0x6b4640  flags=(IsInteger|IsStore|IsMicroop|IsLastMicroop)
7827831: board.processor.cores.core: A0 T0 : 0x400b36 @generic_start_main+102    : mov	DS:[rip + 0x2b1453], rax
7827831: board.processor.cores.core: A0 T0 : 0x400b36 @generic_start_main+102. 0 :   MOV_P_R : rdip   t7, t7  : IntAlu :  D=0x0000000000400b3d  flags=(IsInteger|IsMicroop|IsDelayedCommit|IsFirstMicroop)
7827831: board.processor.cores.core: A0 T0 : 0x400b36 @generic_start_main+102. 1 :   MOV_P_R : st   rax, DS:[t0 + t7 + 0x2b1453] : MemWrite :  D=0x00007fffffffee28 A=0x6b1f90  flags=(IsInteger|IsStore|IsMicroop|IsLastMicroop)
8122869: board.processor.cores.core: A0 T0 : 0x400b3d @generic_start_main+109    : hint	                     
8122869: board.processor.cores.core: A0 T0 : 0x400b3d @generic_start_main+109. 0 :   HINT_NOP : fault   NoFault : No_OpClass :   flags=(IsMicroop|IsLastMicroop|IsFirstMicroop)
8165160: board.processor.cores.core: A0 T0 : 0x400b40 @generic_start_main+112    : add	rdi, 0x8              
8165160: board.processor.cores.core: A0 T0 : 0x400b40 @generic_start_main+112. 0 :   ADD_R_I : limm   t1, 0x8 : IntAlu :  D=0x0000000000000008  flags=(IsInteger|IsMicroop|IsDelayedCommit|IsFirstMicroop)
8165160: board.processor.cores.core: A0 T0 : 0x400b40 @generic_start_main+112. 1 :   ADD_R_I : add   rdi, rdi, t1 : IntAlu :  D=0x0000000000000000  flags=(IsInteger|IsMicroop|IsLastMicroop)
8249742: board.processor.cores.core: A0 T0 : 0x400b44 @generic_start_main+116    : cmp	DS:[rdi + 0xfffffffffffffff8], 0
8249742: board.processor.cores.core: A0 T0 : 0x400b44 @generic_start_main+116. 0 :   CMP_M_I : limm   t2, 0   : IntAlu :  D=0x0000000000000000  flags=(IsInteger|IsMicroop|IsDelayedCommit|IsFirstMicroop)
8249742: board.processor.cores.core: A0 T0 : 0x400b44 @generic_start_main+116. 1 :   CMP_M_I : ld   t1, DS:[rdi + 0xfffffffffffffff8] : MemRead :  D=0x0000000000000000 A=0x7fffffffee48  flags=(IsInteger|IsLoad|IsMicroop|IsDelayedCommit)
8305686: board.processor.cores.core: A0 T0 : 0x400b44 @generic_start_main+116. 2 :   CMP_M_I : sub   t0, t1, t2 : IntAlu :  D=0x0000000000000000  flags=(IsInteger|IsMicroop|IsLastMicroop)
8347977: board.processor.cores.core: A0 T0 : 0x400b49 @generic_start_main+121    : jnz	0xfffffffffffffff5    
8347977: board.processor.cores.core: A0 T0 : 0x400b49 @generic_start_main+121. 0 :   JNZ_I : rdip   t1, t1    : IntAlu :  D=0x0000000000400b4b  flags=(IsInteger|IsMicroop|IsDelayedCommit|IsFirstMicroop)
8347977: board.processor.cores.core: A0 T0 : 0x400b49 @generic_start_main+121. 1 :   JNZ_I : limm   t2, 0xfffffffffffffff5 : IntAlu :  D=0xfffffffffffffff5  flags=(IsInteger|IsMicroop|IsDelayedCommit)
8347977: board.processor.cores.core: A0 T0 : 0x400b49 @generic_start_main+121. 2 :   JNZ_I : wrip   t1, t2    : IntAlu :   flags=(IsInteger|IsControl|IsDirectControl|IsCondControl|IsMicroop|IsLastMicroop)
8390268: board.processor.cores.core: A0 T0 : 0x400b4b @generic_start_main+123    : call	0x34480              
8390268: board.processor.cores.core: A0 T0 : 0x400b4b @generic_start_main+123. 0 :   CALL_NEAR_I : limm   t1, 0x34480 : IntAlu :  D=0x0000000000034480  flags=(IsInteger|IsMicroop|IsDelayedCommit|IsFirstMicroop)
8390268: board.processor.cores.core: A0 T0 : 0x400b4b @generic_start_main+123. 1 :   CALL_NEAR_I : rdip   t7, t7 : IntAlu :  D=0x0000000000400b50  flags=(IsInteger|IsMicroop|IsDelayedCommit)
8390268: board.processor.cores.core: A0 T0 : 0x400b4b @generic_start_main+123. 2 :   CALL_NEAR_I : st   t7, SS:[rsp + 0xfffffffffffffff8] : MemWrite :  D=0x0000000000400b50 A=0x7fffffffecf8  flags=(IsInteger|IsStore|IsMicroop|IsDelayedCommit)
8404254: board.processor.cores.core: A0 T0 : 0x400b4b @generic_start_main+123. 3 :   CALL_NEAR_I : subi   rsp, rsp, 0x8 : IntAlu :  D=0x00007fffffffecf8  flags=(IsInteger|IsMicroop|IsDelayedCommit)
8404254: board.processor.cores.core: A0 T0 : 0x400b4b @generic_start_main+123. 4 :   CALL_NEAR_I : wrip   t7, t1 : IntAlu :   flags=(IsInteger|IsControl|IsDirectControl|IsUncondControl|IsCall|IsMicroop|IsLastMicroop)
8460198: board.processor.cores.core: A0 T0 : 0x434fd0 @_dl_aux_init    : mov	rax, DS:[rdi]         
8460198: board.processor.cores.core: A0 T0 : 0x434fd0 @_dl_aux_init. 0 :   MOV_R_M : ld   rax, DS:[rdi] : MemRead :  D=0x0000000000000021 A=0x7fffffffee50  flags=(IsInteger|IsLoad|IsMicroop|IsLastMicroop|IsFirstMicroop)
8587071: board.processor.cores.core: A0 T0 : 0x434fd3 @_dl_aux_init+3    : mov	DS:[rip + 0x280266], rdi
8587071: board.processor.cores.core: A0 T0 : 0x434fd3 @_dl_aux_init+3. 0 :   MOV_P_R : rdip   t7, t7  : IntAlu :  D=0x0000000000434fda  flags=(IsInteger|IsMicroop|IsDelayedCommit|IsFirstMicroop)
8587071: board.processor.cores.core: A0 T0 : 0x434fd3 @_dl_aux_init+3. 1 :   MOV_P_R : st   rdi, DS:[t0 + t7 + 0x280266] : MemWrite :  D=0x00007fffffffee50 A=0x6b5240  flags=(IsInteger|IsStore|IsMicroop|IsLastMicroop)
8643348: board.processor.cores.core: A0 T0 : 0x434fda @_dl_aux_init+10    : test	rax                  
8643348: board.processor.cores.core: A0 T0 : 0x434fda @_dl_aux_init+10. 0 :   TEST_R_R : and   t0, rax, rax : IntAlu :  D=0x0000000000000000  flags=(IsInteger|IsMicroop|IsLastMicroop|IsFirstMicroop)
8727930: board.processor.cores.core: A0 T0 : 0x434fdd @_dl_aux_init+13    : jz	0x1df                  
8727930: board.processor.cores.core: A0 T0 : 0x434fdd @_dl_aux_init+13. 0 :   JZ_I : rdip   t1, t1     : IntAlu :  D=0x0000000000434fe3  flags=(IsInteger|IsMicroop|IsDelayedCommit|IsFirstMicroop)
8727930: board.processor.cores.core: A0 T0 : 0x434fdd @_dl_aux_init+13. 1 :   JZ_I : limm   t2, 0x1df  : IntAlu :  D=0x00000000000001df  flags=(IsInteger|IsMicroop|IsDelayedCommit)
8727930: board.processor.cores.core: A0 T0 : 0x434fdd @_dl_aux_init+13. 2 :   JZ_I : wrip   t1, t2     : IntAlu :   flags=(IsInteger|IsControl|IsDirectControl|IsCondControl|IsMicroop|IsLastMicroop)
8770221: board.processor.cores.core: A0 T0 : 0x434fe3 @_dl_aux_init+19    : push	r15                  
8770221: board.processor.cores.core: A0 T0 : 0x434fe3 @_dl_aux_init+19. 0 :   PUSH_R : st   r15, SS:[t0 + rsp + 0xfffffffffffffff8] : MemWrite :  D=0x0000000000000000 A=0x7fffffffecf0  flags=(IsInteger|IsStore|IsMicroop|IsDelayedCommit|IsFirstMicroop)
8784207: board.processor.cores.core: A0 T0 : 0x434fe3 @_dl_aux_init+19. 1 :   PUSH_R : subi   rsp, rsp, 0x8 : IntAlu :  D=0x00007fffffffecf0  flags=(IsInteger|IsMicroop|IsLastMicroop)
8826498: board.processor.cores.core: A0 T0 : 0x434fe5 @_dl_aux_init+21    : push	r14                  
8826498: board.processor.cores.core: A0 T0 : 0x434fe5 @_dl_aux_init+21. 0 :   PUSH_R : st   r14, SS:[t0 + rsp + 0xfffffffffffffff8] : MemWrite :  D=0x0000000000000000 A=0x7fffffffece8  flags=(IsInteger|IsStore|IsMicroop|IsDelayedCommit|IsFirstMicroop)
8840484: board.processor.cores.core: A0 T0 : 0x434fe5 @_dl_aux_init+21. 1 :   PUSH_R : subi   rsp, rsp, 0x8 : IntAlu :  D=0x00007fffffffece8  flags=(IsInteger|IsMicroop|IsLastMicroop)
8925066: board.processor.cores.core: A0 T0 : 0x434fe7 @_dl_aux_init+23    : xor	r9d                   
8925066: board.processor.cores.core: A0 T0 : 0x434fe7 @_dl_aux_init+23. 0 :   XOR_R_R : xor   r9d, r9d, r9d : IntAlu :  D=0x0000000000000000  flags=(IsInteger|IsMicroop|IsLastMicroop|IsFirstMicroop)
8967357: board.processor.cores.core: A0 T0 : 0x434fea @_dl_aux_init+26    : push	r13                  
8967357: board.processor.cores.core: A0 T0 : 0x434fea @_dl_aux_init+26. 0 :   PUSH_R : st   r13, SS:[t0 + rsp + 0xfffffffffffffff8] : MemWrite :  D=0x0000000000401730 A=0x7fffffffece0  flags=(IsInteger|IsStore|IsMicroop|IsDelayedCommit|IsFirstMicroop)
8981343: board.processor.cores.core: A0 T0 : 0x434fea @_dl_aux_init+26. 1 :   PUSH_R : subi   rsp, rsp, 0x8 : IntAlu :  D=0x00007fffffffece0  flags=(IsInteger|IsMicroop|IsLastMicroop)
9023634: board.processor.cores.core: A0 T0 : 0x434fec @_dl_aux_init+28    : push	r12                  
9023634: board.processor.cores.core: A0 T0 : 0x434fec @_dl_aux_init+28. 0 :   PUSH_R : st   r12, SS:[t0 + rsp + 0xfffffffffffffff8] : MemWrite :  D=0x00000000004016a0 A=0x7fffffffecd8  flags=(IsInteger|IsStore|IsMicroop|IsDelayedCommit|IsFirstMicroop)
9037620: board.processor.cores.core: A0 T0 : 0x434fec @_dl_aux_init+28. 1 :   PUSH_R : subi   rsp, rsp, 0x8 : IntAlu :  D=0x00007fffffffecd8  flags=(IsInteger|IsMicroop|IsLastMicroop)
9122202: board.processor.cores.core: A0 T0 : 0x434fee @_dl_aux_init+30    : xor	r11d                  
9122202: board.processor.cores.core: A0 T0 : 0x434fee @_dl_aux_init+30. 0 :   XOR_R_R : xor   r11d, r11d, r11d : IntAlu :  D=0x0000000000000000  flags=(IsInteger|IsMicroop|IsLastMicroop|IsFirstMicroop)
9164493: board.processor.cores.core: A0 T0 : 0x434ff1 @_dl_aux_init+33    : push	rbp                  
9164493: board.processor.cores.core: A0 T0 : 0x434ff1 @_dl_aux_init+33. 0 :   PUSH_R : st   rbp, SS:[t0 + rsp + 0xfffffffffffffff8] : MemWrite :  D=0x0000000000400aae A=0x7fffffffecd0  flags=(IsInteger|IsStore|IsMicroop|IsDelayedCommit|IsFirstMicroop)
9178479: board.processor.cores.core: A0 T0 : 0x434ff1 @_dl_aux_init+33. 1 :   PUSH_R : subi   rsp, rsp, 0x8 : IntAlu :  D=0x00007fffffffecd0  flags=(IsInteger|IsMicroop|IsLastMicroop)
9220770: board.processor.cores.core: A0 T0 : 0x434ff2 @_dl_aux_init+34    : push	rbx                  
9220770: board.processor.cores.core: A0 T0 : 0x434ff2 @_dl_aux_init+34. 0 :   PUSH_R : st   rbx, SS:[t0 + rsp + 0xfffffffffffffff8] : MemWrite :  D=0x000000006f677948 A=0x7fffffffecc8  flags=(IsInteger|IsStore|IsMicroop|IsDelayedCommit|IsFirstMicroop)
9234756: board.processor.cores.core: A0 T0 : 0x434ff2 @_dl_aux_init+34. 1 :   PUSH_R : subi   rsp, rsp, 0x8 : IntAlu :  D=0x00007fffffffecc8  flags=(IsInteger|IsMicroop|IsLastMicroop)
9290700: board.processor.cores.core: A0 T0 : 0x434ff3 @_dl_aux_init+35    : xor	ebp                   
9290700: board.processor.cores.core: A0 T0 : 0x434ff3 @_dl_aux_init+35. 0 :   XOR_R_R : xor   ebp, ebp, ebp : IntAlu :  D=0x0000000000000000  flags=(IsInteger|IsMicroop|IsLastMicroop|IsFirstMicroop)
9375282: board.processor.cores.core: A0 T0 : 0x434ff5 @_dl_aux_init+37    : mov	rbx, DS:[rip + 0x28028c]
9375282: board.processor.cores.core: A0 T0 : 0x434ff5 @_dl_aux_init+37. 0 :   MOV_R_P : rdip   t7, t7  : IntAlu :  D=0x0000000000434ffc  flags=(IsInteger|IsMicroop|IsDelayedCommit|IsFirstMicroop)
9375282: board.processor.cores.core: A0 T0 : 0x434ff5 @_dl_aux_init+37. 1 :   MOV_R_P : ld   rbx, DS:[t0 + t7 + 0x28028c] : MemRead :  D=0x0000000000000000 A=0x6b5288  flags=(IsInteger|IsLoad|IsMicroop|IsLastMicroop)
9502155: board.processor.cores.core: A0 T0 : 0x434ffc @_dl_aux_init+44    : mov	rsi, DS:[rip + 0x27cf7d]
9502155: board.processor.cores.core: A0 T0 : 0x434ffc @_dl_aux_init+44. 0 :   MOV_R_P : rdip   t7, t7  : IntAlu :  D=0x0000000000435003  flags=(IsInteger|IsMicroop|IsDelayedCommit|IsFirstMicroop)
9502155: board.processor.cores.core: A0 T0 : 0x434ffc @_dl_aux_init+44. 1 :   MOV_R_P : ld   rsi, DS:[t0 + t7 + 0x27cf7d] : MemRead :  D=0x0000000000000000 A=0x6b1f80  flags=(IsInteger|IsLoad|IsMicroop|IsLastMicroop)
9600390: board.processor.cores.core: A0 T0 : 0x435003 @_dl_aux_init+51    : xor	r13d                  
9600390: board.processor.cores.core: A0 T0 : 0x435003 @_dl_aux_init+51. 0 :   XOR_R_R : xor   r13d, r13d, r13d : IntAlu :  D=0x0000000000000000  flags=(IsInteger|IsMicroop|IsLastMicroop|IsFirstMicroop)
9684972: board.processor.cores.core: A0 T0 : 0x435006 @_dl_aux_init+54    : mov	rcx, DS:[rip + 0x27f65b]
9684972: board.processor.cores.core: A0 T0 : 0x435006 @_dl_aux_init+54. 0 :   MOV_R_P : rdip   t7, t7  : IntAlu :  D=0x000000000043500d  flags=(IsInteger|IsMicroop|IsDelayedCommit|IsFirstMicroop)
9684972: board.processor.cores.core: A0 T0 : 0x435006 @_dl_aux_init+54. 1 :   MOV_R_P : ld   rcx, DS:[t0 + t7 + 0x27f65b] : MemRead :  D=0x0000000000000000 A=0x6b4668  flags=(IsInteger|IsLoad|IsMicroop|IsLastMicroop)
9866457: board.processor.cores.core: A0 T0 : 0x43500d @_dl_aux_init+61    : mov	rdx, DS:[rip + 0x27e16c]
9866457: board.processor.cores.core: A0 T0 : 0x43500d @_dl_aux_init+61. 0 :   MOV_R_P : rdip   t7, t7  : IntAlu :  D=0x0000000000435014  flags=(IsInteger|IsMicroop|IsDelayedCommit|IsFirstMicroop)
9866457: board.processor.cores.core: A0 T0 : 0x43500d @_dl_aux_init+61. 1 :   MOV_R_P : ld   rdx, DS:[t0 + t7 + 0x27e16c] : MemRead :  D=0x0000000000001000 A=0x6b3180  flags=(IsInteger|IsLoad|IsMicroop|IsLastMicroop)
10005651: board.processor.cores.core: A0 T0 : 0x435014 @_dl_aux_init+68    : xor	r15d                  
10005651: board.processor.cores.core: A0 T0 : 0x435014 @_dl_aux_init+68. 0 :   XOR_R_R : xor   r15d, r15d, r15d : IntAlu :  D=0x0000000000000000  flags=(IsInteger|IsMicroop|IsLastMicroop|IsFirstMicroop)
10090233: board.processor.cores.core: A0 T0 : 0x435017 @_dl_aux_init+71    : mov	r14d, DS:[rip + 0x280262]
10090233: board.processor.cores.core: A0 T0 : 0x435017 @_dl_aux_init+71. 0 :   MOV_R_P : rdip   t7d, t7d : IntAlu :  D=0x000000000043501e  flags=(IsInteger|IsMicroop|IsDelayedCommit|IsFirstMicroop)
10090233: board.processor.cores.core: A0 T0 : 0x435017 @_dl_aux_init+71. 1 :   MOV_R_P : ld   r14d, DS:[t0 + t7 + 0x280262] : MemRead :  D=0x0000000000000000 A=0x6b5280  flags=(IsInteger|IsLoad|IsMicroop|IsLastMicroop)
10217106: board.processor.cores.core: A0 T0 : 0x43501e @_dl_aux_init+78    : mov	r10, DS:[rip + 0x280223]
10217106: board.processor.cores.core: A0 T0 : 0x43501e @_dl_aux_init+78. 0 :   MOV_R_P : rdip   t7, t7  : IntAlu :  D=0x0000000000435025  flags=(IsInteger|IsMicroop|IsDelayedCommit|IsFirstMicroop)
10217106: board.processor.cores.core: A0 T0 : 0x43501e @_dl_aux_init+78. 1 :   MOV_R_P : ld   r10, DS:[t0 + t7 + 0x280223] : MemRead :  D=0x0000000000000000 A=0x6b5248  flags=(IsInteger|IsLoad|IsMicroop|IsLastMicroop)
10301688: board.processor.cores.core: A0 T0 : 0x435025 @_dl_aux_init+85    : xor	r8d                   
10301688: board.processor.cores.core: A0 T0 : 0x435025 @_dl_aux_init+85. 0 :   XOR_R_R : xor   r8d, r8d, r8d : IntAlu :  D=0x0000000000000000  flags=(IsInteger|IsMicroop|IsLastMicroop|IsFirstMicroop)
10343979: board.processor.cores.core: A0 T0 : 0x435028 @_dl_aux_init+88    : mov	SS:[t0 + rsp + 0xffffffffffffffd8], rbx
10343979: board.processor.cores.core: A0 T0 : 0x435028 @_dl_aux_init+88. 0 :   MOV_M_R : st   rbx, SS:[t0 + rsp + 0xffffffffffffffd8] : MemWrite :  D=0x0000000000000000 A=0x7fffffffeca0  flags=(IsInteger|IsStore|IsMicroop|IsLastMicroop|IsFirstMicroop)
10442547: board.processor.cores.core: A0 T0 : 0x43502d @_dl_aux_init+93    : mov	ebx, DS:[rip + 0x27cf65]
10442547: board.processor.cores.core: A0 T0 : 0x43502d @_dl_aux_init+93. 0 :   MOV_R_P : rdip   t7d, t7d : IntAlu :  D=0x0000000000435033  flags=(IsInteger|IsMicroop|IsDelayedCommit|IsFirstMicroop)
10442547: board.processor.cores.core: A0 T0 : 0x43502d @_dl_aux_init+93. 1 :   MOV_R_P : ld   ebx, DS:[t0 + t7 + 0x27cf65] : MemRead :  D=0x0000000000000001 A=0x6b1f98  flags=(IsInteger|IsLoad|IsMicroop|IsLastMicroop)
10527129: board.processor.cores.core: A0 T0 : 0x435033 @_dl_aux_init+99    : mov	SS:[t0 + rsp + 0xffffffffffffffe8], rsi
10527129: board.processor.cores.core: A0 T0 : 0x435033 @_dl_aux_init+99. 0 :   MOV_M_R : st   rsi, SS:[t0 + rsp + 0xffffffffffffffe8] : MemWrite :  D=0x0000000000000000 A=0x7fffffffecb0  flags=(IsInteger|IsStore|IsMicroop|IsLastMicroop|IsFirstMicroop)
10583406: board.processor.cores.core: A0 T0 : 0x435038 @_dl_aux_init+104    : movzx	esi, DS:[rip + 0x27e135]
10583406: board.processor.cores.core: A0 T0 : 0x435038 @_dl_aux_init+104. 0 :   MOVZX_W_R_P : rdip   t7d, t7d : IntAlu :  D=0x000000000043503f  flags=(IsInteger|IsMicroop|IsDelayedCommit|IsFirstMicroop)
10583406: board.processor.cores.core: A0 T0 : 0x435038 @_dl_aux_init+104. 1 :   MOVZX_W_R_P : ld   t1w, DS:[t0 + t7 + 0x27e135] : MemRead :  D=0x000000000043037f A=0x6b3174  flags=(IsInteger|IsLoad|IsMicroop|IsDelayedCommit)
10653003: board.processor.cores.core: A0 T0 : 0x435038 @_dl_aux_init+104. 2 :   MOVZX_W_R_P : zexti   esi, t1d, 0xf : IntAlu :  D=0x000000000000037f  flags=(IsInteger|IsMicroop|IsLastMicroop)
10764891: board.processor.cores.core: A0 T0 : 0x43503f @_dl_aux_init+111    : mov	SS:[t0 + rsp + 0xffffffffffffffd0], rcx
10764891: board.processor.cores.core: A0 T0 : 0x43503f @_dl_aux_init+111. 0 :   MOV_M_R : st   rcx, SS:[t0 + rsp + 0xffffffffffffffd0] : MemWrite :  D=0x0000000000000000 A=0x7fffffffec98  flags=(IsInteger|IsStore|IsMicroop|IsLastMicroop|IsFirstMicroop)
10863459: board.processor.cores.core: A0 T0 : 0x435044 @_dl_aux_init+116    : mov	ecx, DS:[rip + 0x280286]
10863459: board.processor.cores.core: A0 T0 : 0x435044 @_dl_aux_init+116. 0 :   MOV_R_P : rdip   t7d, t7d : IntAlu :  D=0x000000000043504a  flags=(IsInteger|IsMicroop|IsDelayedCommit|IsFirstMicroop)
10863459: board.processor.cores.core: A0 T0 : 0x435044 @_dl_aux_init+116. 1 :   MOV_R_P : ld   ecx, DS:[t0 + t7 + 0x280286] : MemRead :  D=0x0000000000000000 A=0x6b52d0  flags=(IsInteger|IsLoad|IsMicroop|IsLastMicroop)
10948041: board.processor.cores.core: A0 T0 : 0x43504a @_dl_aux_init+122    : mov	SS:[t0 + rsp + 0xffffffffffffffe4], rbx
10948041: board.processor.cores.core: A0 T0 : 0x43504a @_dl_aux_init+122. 0 :   MOV_M_R : st   ebx, SS:[t0 + rsp + 0xffffffffffffffe4] : MemWrite :  D=0x0000000000000001 A=0x7fffffffecac  flags=(IsInteger|IsStore|IsMicroop|IsLastMicroop|IsFirstMicroop)
11046609: board.processor.cores.core: A0 T0 : 0x43504e @_dl_aux_init+126    : mov	rbx, DS:[rip + 0x27f61b]
11046609: board.processor.cores.core: A0 T0 : 0x43504e @_dl_aux_init+126. 0 :   MOV_R_P : rdip   t7, t7  : IntAlu :  D=0x0000000000435055  flags=(IsInteger|IsMicroop|IsDelayedCommit|IsFirstMicroop)
11046609: board.processor.cores.core: A0 T0 : 0x43504e @_dl_aux_init+126. 1 :   MOV_R_P : ld   rbx, DS:[t0 + t7 + 0x27f61b] : MemRead :  D=0x0000000000000000 A=0x6b4670  flags=(IsInteger|IsLoad|IsMicroop|IsLastMicroop)
11228094: board.processor.cores.core: A0 T0 : 0x435055 @_dl_aux_init+133    : mov	r12, DS:[rip + 0x28020c]
11228094: board.processor.cores.core: A0 T0 : 0x435055 @_dl_aux_init+133. 0 :   MOV_R_P : rdip   t7, t7  : IntAlu :  D=0x000000000043505c  flags=(IsInteger|IsMicroop|IsDelayedCommit|IsFirstMicroop)
11228094: board.processor.cores.core: A0 T0 : 0x435055 @_dl_aux_init+133. 1 :   MOV_R_P : ld   r12, DS:[t0 + t7 + 0x28020c] : MemRead :  D=0x0000000000000000 A=0x6b5268  flags=(IsInteger|IsLoad|IsMicroop|IsLastMicroop)
11354967: board.processor.cores.core: A0 T0 : 0x43505c @_dl_aux_init+140    : mov	SS:[t0 + rsp + 0xfffffffffffffff8], rdx
11354967: board.processor.cores.core: A0 T0 : 0x43505c @_dl_aux_init+140. 0 :   MOV_M_R : st   rdx, SS:[t0 + rsp + 0xfffffffffffffff8] : MemWrite :  D=0x0000000000001000 A=0x7fffffffecc0  flags=(IsInteger|IsStore|IsMicroop|IsLastMicroop|IsFirstMicroop)
11411244: board.processor.cores.core: A0 T0 : 0x435061 @_dl_aux_init+145    : xor	edx                   
11411244: board.processor.cores.core: A0 T0 : 0x435061 @_dl_aux_init+145. 0 :   XOR_R_R : xor   edx, edx, edx : IntAlu :  D=0x0000000000000000  flags=(IsInteger|IsMicroop|IsLastMicroop|IsFirstMicroop)
11453535: board.processor.cores.core: A0 T0 : 0x435063 @_dl_aux_init+147    : mov	SS:[t0 + rsp + 0xfffffffffffffff0], rcx
11453535: board.processor.cores.core: A0 T0 : 0x435063 @_dl_aux_init+147. 0 :   MOV_M_R : st   ecx, SS:[t0 + rsp + 0xfffffffffffffff0] : MemWrite :  D=0x0000000000000000 A=0x7fffffffecb8  flags=(IsInteger|IsStore|IsMicroop|IsLastMicroop|IsFirstMicroop)
11552103: board.processor.cores.core: A0 T0 : 0x435067 @_dl_aux_init+151    : mov	SS:[t0 + rsp + 0xffffffffffffffe0], rsi
11552103: board.processor.cores.core: A0 T0 : 0x435067 @_dl_aux_init+151. 0 :   MOV_M_R : st   si, SS:[t0 + rsp + 0xffffffffffffffe0] : MemWrite :  D=0x000000000000037f A=0x7fffffffeca8  flags=(IsInteger|IsStore|IsMicroop|IsLastMicroop|IsFirstMicroop)
11608380: board.processor.cores.core: A0 T0 : 0x43506c @_dl_aux_init+156    : xor	ecx                   
11608380: board.processor.cores.core: A0 T0 : 0x43506c @_dl_aux_init+156. 0 :   XOR_R_R : xor   ecx, ecx, ecx : IntAlu :  D=0x0000000000000000  flags=(IsInteger|IsMicroop|IsLastMicroop|IsFirstMicroop)
11692962: board.processor.cores.core: A0 T0 : 0x43506e @_dl_aux_init+158    : mov	SS:[t0 + rsp + 0xffffffffffffffc8], rbx
11692962: board.processor.cores.core: A0 T0 : 0x43506e @_dl_aux_init+158. 0 :   MOV_M_R : st   rbx, SS:[t0 + rsp + 0xffffffffffffffc8] : MemWrite :  D=0x0000000000000000 A=0x7fffffffec90  flags=(IsInteger|IsStore|IsMicroop|IsLastMicroop|IsFirstMicroop)
11791530: board.processor.cores.core: A0 T0 : 0x435073 @_dl_aux_init+163    : mov	rbx, DS:[rip + 0x280226]
11791530: board.processor.cores.core: A0 T0 : 0x435073 @_dl_aux_init+163. 0 :   MOV_R_P : rdip   t7, t7  : IntAlu :  D=0x000000000043507a  flags=(IsInteger|IsMicroop|IsDelayedCommit|IsFirstMicroop)
11791530: board.processor.cores.core: A0 T0 : 0x435073 @_dl_aux_init+163. 1 :   MOV_R_P : ld   rbx, DS:[t0 + t7 + 0x280226] : MemRead :  D=0x0000000000000000 A=0x6b52a0  flags=(IsInteger|IsLoad|IsMicroop|IsLastMicroop)
11876112: board.processor.cores.core: A0 T0 : 0x43507a @_dl_aux_init+170    : xor	esi                   
11876112: board.processor.cores.core: A0 T0 : 0x43507a @_dl_aux_init+170. 0 :   XOR_R_R : xor   esi, esi, esi : IntAlu :  D=0x0000000000000000  flags=(IsInteger|IsMicroop|IsLastMicroop|IsFirstMicroop)
11960694: board.processor.cores.core: A0 T0 : 0x43507c @_dl_aux_init+172    : mov	SS:[t0 + rsp + 0xfffffffffffffff7], 0
11960694: board.processor.cores.core: A0 T0 : 0x43507c @_dl_aux_init+172. 0 :   MOV_M_I : limm   t1b, 0  : IntAlu :  D=0x0000000000430300  flags=(IsInteger|IsMicroop|IsDelayedCommit|IsFirstMicroop)
11960694: board.processor.cores.core: A0 T0 : 0x43507c @_dl_aux_init+172. 1 :   MOV_M_I : st   t1b, SS:[t0 + rsp + 0xfffffffffffffff7] : MemWrite :  D=0x0000000000000000 A=0x7fffffffecbf  flags=(IsInteger|IsStore|IsMicroop|IsLastMicroop)
12030624: board.processor.cores.core: A0 T0 : 0x435081 @_dl_aux_init+177    : mov	SS:[t0 + rsp + 0xfffffffffffffff6], 0
12030624: board.processor.cores.core: A0 T0 : 0x435081 @_dl_aux_init+177. 0 :   MOV_M_I : limm   t1b, 0  : IntAlu :  D=0x0000000000430300  flags=(IsInteger|IsMicroop|IsDelayedCommit|IsFirstMicroop)
12030624: board.processor.cores.core: A0 T0 : 0x435081 @_dl_aux_init+177. 1 :   MOV_M_I : st   t1b, SS:[t0 + rsp + 0xfffffffffffffff6] : MemWrite :  D=0x0000000000000000 A=0x7fffffffecbe  flags=(IsInteger|IsStore|IsMicroop|IsLastMicroop)
12129192: board.processor.cores.core: A0 T0 : 0x435086 @_dl_aux_init+182    : mov	SS:[t0 + rsp + 0xfffffffffffffff5], 0
12129192: board.processor.cores.core: A0 T0 : 0x435086 @_dl_aux_init+182. 0 :   MOV_M_I : limm   t1b, 0  : IntAlu :  D=0x0000000000430300  flags=(IsInteger|IsMicroop|IsDelayedCommit|IsFirstMicroop)
12129192: board.processor.cores.core: A0 T0 : 0x435086 @_dl_aux_init+182. 1 :   MOV_M_I : st   t1b, SS:[t0 + rsp + 0xfffffffffffffff5] : MemWrite :  D=0x0000000000000000 A=0x7fffffffecbd  flags=(IsInteger|IsStore|IsMicroop|IsLastMicroop)
12185469: board.processor.cores.core: A0 T0 : 0x43508b @_dl_aux_init+187    : mov	SS:[t0 + rsp + 0xfffffffffffffff4], 0
12185469: board.processor.cores.core: A0 T0 : 0x43508b @_dl_aux_init+187. 0 :   MOV_M_I : limm   t1b, 0  : IntAlu :  D=0x0000000000430300  flags=(IsInteger|IsMicroop|IsDelayedCommit|IsFirstMicroop)
12185469: board.processor.cores.core: A0 T0 : 0x43508b @_dl_aux_init+187. 1 :   MOV_M_I : st   t1b, SS:[t0 + rsp + 0xfffffffffffffff4] : MemWrite :  D=0x0000000000000000 A=0x7fffffffecbc  flags=(IsInteger|IsStore|IsMicroop|IsLastMicroop)
12241746: board.processor.cores.core: A0 T0 : 0x435090 @_dl_aux_init+192    : mov	SS:[t0 + rsp + 0xffffffffffffffe3], 0
12241746: board.processor.cores.core: A0 T0 : 0x435090 @_dl_aux_init+192. 0 :   MOV_M_I : limm   t1b, 0  : IntAlu :  D=0x0000000000430300  flags=(IsInteger|IsMicroop|IsDelayedCommit|IsFirstMicroop)
12241746: board.processor.cores.core: A0 T0 : 0x435090 @_dl_aux_init+192. 1 :   MOV_M_I : st   t1b, SS:[t0 + rsp + 0xffffffffffffffe3] : MemWrite :  D=0x0000000000000000 A=0x7fffffffecab  flags=(IsInteger|IsStore|IsMicroop|IsLastMicroop)
12340314: board.processor.cores.core: A0 T0 : 0x435095 @_dl_aux_init+197    : mov	SS:[t0 + rsp + 0xffffffffffffffe2], 0
12340314: board.processor.cores.core: A0 T0 : 0x435095 @_dl_aux_init+197. 0 :   MOV_M_I : limm   t1b, 0  : IntAlu :  D=0x0000000000430300  flags=(IsInteger|IsMicroop|IsDelayedCommit|IsFirstMicroop)
12340314: board.processor.cores.core: A0 T0 : 0x435095 @_dl_aux_init+197. 1 :   MOV_M_I : st   t1b, SS:[t0 + rsp + 0xffffffffffffffe2] : MemWrite :  D=0x0000000000000000 A=0x7fffffffecaa  flags=(IsInteger|IsStore|IsMicroop|IsLastMicroop)
12396591: board.processor.cores.core: A0 T0 : 0x43509a @_dl_aux_init+202    : hint	                     
12396591: board.processor.cores.core: A0 T0 : 0x43509a @_dl_aux_init+202. 0 :   HINT_NOP : fault   NoFault : No_OpClass :   flags=(IsMicroop|IsLastMicroop|IsFirstMicroop)
12438882: board.processor.cores.core: A0 T0 : 0x4350a0 @_dl_aux_init+208    : sub	rax, 0x3              
[...]
457928946: board.processor.cores.core: A0 T0 : 0x40de7a @_IO_cleanup+410. 1 :   DEC_M : subi   t1d, t1d, 0x1 : IntAlu :  D=0x0000000000000000  flags=(IsInteger|IsMicroop|IsDelayedCommit)
457928946: board.processor.cores.core: A0 T0 : 0x40de7a @_IO_cleanup+410. 2 :   DEC_M : st   t1d, DS:[rdx] : MemWrite :  D=0x0000000000000000 A=0x6b45c0  flags=(IsInteger|IsStore|IsMicroop|IsLastMicroop)
457985223: board.processor.cores.core: A0 T0 : 0x40de7c @_IO_cleanup+412    : jz	0x16                   
457985223: board.processor.cores.core: A0 T0 : 0x40de7c @_IO_cleanup+412. 0 :   JZ_I : rdip   t1, t1     : IntAlu :  D=0x000000000040de7e  flags=(IsInteger|IsMicroop|IsDelayedCommit|IsFirstMicroop)
457985223: board.processor.cores.core: A0 T0 : 0x40de7c @_IO_cleanup+412. 1 :   JZ_I : limm   t2, 0x16   : IntAlu :  D=0x0000000000000016  flags=(IsInteger|IsMicroop|IsDelayedCommit)
457985223: board.processor.cores.core: A0 T0 : 0x40de7c @_IO_cleanup+412. 2 :   JZ_I : wrip   t1, t2     : IntAlu :   flags=(IsInteger|IsControl|IsDirectControl|IsCondControl|IsMicroop|IsLastMicroop)
458083458: board.processor.cores.core: A0 T0 : 0x40de94 @_IO_cleanup+436    : jmp	0xffffffffffffff1f    
458083458: board.processor.cores.core: A0 T0 : 0x40de94 @_IO_cleanup+436. 0 :   JMP_I : rdip   t1, t1    : IntAlu :  D=0x000000000040de99  flags=(IsInteger|IsMicroop|IsDelayedCommit|IsFirstMicroop)
458083458: board.processor.cores.core: A0 T0 : 0x40de94 @_IO_cleanup+436. 1 :   JMP_I : limm   t2, 0xffffffffffffff1f : IntAlu :  D=0xffffffffffffff1f  flags=(IsInteger|IsMicroop|IsDelayedCommit)
458083458: board.processor.cores.core: A0 T0 : 0x40de94 @_IO_cleanup+436. 2 :   JMP_I : wrip   t1, t2    : IntAlu :   flags=(IsInteger|IsControl|IsDirectControl|IsUncondControl|IsMicroop|IsLastMicroop)
458168040: board.processor.cores.core: A0 T0 : 0x40ddb8 @_IO_cleanup+216    : mov	DS:[rbx + 0xc0], 0xffffffffffffffff
458168040: board.processor.cores.core: A0 T0 : 0x40ddb8 @_IO_cleanup+216. 0 :   MOV_M_I : limm   t1d, 0xffffffffffffffff : IntAlu :  D=0x00000000ffffffff  flags=(IsInteger|IsMicroop|IsDelayedCommit|IsFirstMicroop)
458168040: board.processor.cores.core: A0 T0 : 0x40ddb8 @_IO_cleanup+216. 1 :   MOV_M_I : st   t1d, DS:[rbx + 0xc0] : MemWrite :  D=0x00000000ffffffff A=0x6b23c0  flags=(IsInteger|IsStore|IsMicroop|IsLastMicroop)
458224317: board.processor.cores.core: A0 T0 : 0x40ddc2 @_IO_cleanup+226    : mov	rbx, DS:[rbx + 0x68]  
458224317: board.processor.cores.core: A0 T0 : 0x40ddc2 @_IO_cleanup+226. 0 :   MOV_R_M : ld   rbx, DS:[rbx + 0x68] : MemRead :  D=0x00000000006b2520 A=0x6b2368  flags=(IsInteger|IsLoad|IsMicroop|IsLastMicroop|IsFirstMicroop)
458351190: board.processor.cores.core: A0 T0 : 0x40ddc6 @_IO_cleanup+230    : test	rbx                  
458351190: board.processor.cores.core: A0 T0 : 0x40ddc6 @_IO_cleanup+230. 0 :   TEST_R_R : and   t0, rbx, rbx : IntAlu :  D=0x0000000000000000  flags=(IsInteger|IsMicroop|IsLastMicroop|IsFirstMicroop)
458393481: board.processor.cores.core: A0 T0 : 0x40ddc9 @_IO_cleanup+233    : jz	0x65                   
458393481: board.processor.cores.core: A0 T0 : 0x40ddc9 @_IO_cleanup+233. 0 :   JZ_I : rdip   t1, t1     : IntAlu :  D=0x000000000040ddcb  flags=(IsInteger|IsMicroop|IsDelayedCommit|IsFirstMicroop)
458393481: board.processor.cores.core: A0 T0 : 0x40ddc9 @_IO_cleanup+233. 1 :   JZ_I : limm   t2, 0x65   : IntAlu :  D=0x0000000000000065  flags=(IsInteger|IsMicroop|IsDelayedCommit)
458393481: board.processor.cores.core: A0 T0 : 0x40ddc9 @_IO_cleanup+233. 2 :   JZ_I : wrip   t1, t2     : IntAlu :   flags=(IsInteger|IsControl|IsDirectControl|IsCondControl|IsMicroop|IsLastMicroop)
458435772: board.processor.cores.core: A0 T0 : 0x40ddcb @_IO_cleanup+235    : mov	ebp, DS:[rbx]         
458435772: board.processor.cores.core: A0 T0 : 0x40ddcb @_IO_cleanup+235. 0 :   MOV_R_M : ld   ebp, DS:[rbx] : MemRead :  D=0x00000000fbad2088 A=0x6b2520  flags=(IsInteger|IsLoad|IsMicroop|IsLastMicroop|IsFirstMicroop)
458520354: board.processor.cores.core: A0 T0 : 0x40ddcd @_IO_cleanup+237    : and	ebp, 0x2              
458520354: board.processor.cores.core: A0 T0 : 0x40ddcd @_IO_cleanup+237. 0 :   AND_R_I : limm   t1d, 0x2 : IntAlu :  D=0x0000000000000002  flags=(IsInteger|IsMicroop|IsDelayedCommit|IsFirstMicroop)
458520354: board.processor.cores.core: A0 T0 : 0x40ddcd @_IO_cleanup+237. 1 :   AND_R_I : and   ebp, ebp, t1d : IntAlu :  D=0x0000000000000000  flags=(IsInteger|IsMicroop|IsLastMicroop)
458562645: board.processor.cores.core: A0 T0 : 0x40ddd0 @_IO_cleanup+240    : jnz	0xffffffffffffffe6    
458562645: board.processor.cores.core: A0 T0 : 0x40ddd0 @_IO_cleanup+240. 0 :   JNZ_I : rdip   t1, t1    : IntAlu :  D=0x000000000040ddd2  flags=(IsInteger|IsMicroop|IsDelayedCommit|IsFirstMicroop)
458562645: board.processor.cores.core: A0 T0 : 0x40ddd0 @_IO_cleanup+240. 1 :   JNZ_I : limm   t2, 0xffffffffffffffe6 : IntAlu :  D=0xffffffffffffffe6  flags=(IsInteger|IsMicroop|IsDelayedCommit)
458562645: board.processor.cores.core: A0 T0 : 0x40ddd0 @_IO_cleanup+240. 2 :   JNZ_I : wrip   t1, t2    : IntAlu :   flags=(IsInteger|IsControl|IsDirectControl|IsCondControl|IsMicroop|IsLastMicroop)
458604936: board.processor.cores.core: A0 T0 : 0x40ddd2 @_IO_cleanup+242    : mov	edx, DS:[rbx + 0xc0]  
458604936: board.processor.cores.core: A0 T0 : 0x40ddd2 @_IO_cleanup+242. 0 :   MOV_R_M : ld   edx, DS:[rbx + 0xc0] : MemRead :  D=0x0000000000000000 A=0x6b25e0  flags=(IsInteger|IsLoad|IsMicroop|IsLastMicroop|IsFirstMicroop)
458689518: board.processor.cores.core: A0 T0 : 0x40ddd8 @_IO_cleanup+248    : test	edx                  
458689518: board.processor.cores.core: A0 T0 : 0x40ddd8 @_IO_cleanup+248. 0 :   TEST_R_R : and   t0d, edx, edx : IntAlu :  D=0x0000000000000000  flags=(IsInteger|IsMicroop|IsLastMicroop|IsFirstMicroop)
458731809: board.processor.cores.core: A0 T0 : 0x40ddda @_IO_cleanup+250    : jz	0xffffffffffffffdc     
458731809: board.processor.cores.core: A0 T0 : 0x40ddda @_IO_cleanup+250. 0 :   JZ_I : rdip   t1, t1     : IntAlu :  D=0x000000000040dddc  flags=(IsInteger|IsMicroop|IsDelayedCommit|IsFirstMicroop)
458731809: board.processor.cores.core: A0 T0 : 0x40ddda @_IO_cleanup+250. 1 :   JZ_I : limm   t2, 0xffffffffffffffdc : IntAlu :  D=0xffffffffffffffdc  flags=(IsInteger|IsMicroop|IsDelayedCommit)
458731809: board.processor.cores.core: A0 T0 : 0x40ddda @_IO_cleanup+250. 2 :   JZ_I : wrip   t1, t2     : IntAlu :   flags=(IsInteger|IsControl|IsDirectControl|IsCondControl|IsMicroop|IsLastMicroop)
458816391: board.processor.cores.core: A0 T0 : 0x40ddb8 @_IO_cleanup+216    : mov	DS:[rbx + 0xc0], 0xffffffffffffffff
458816391: board.processor.cores.core: A0 T0 : 0x40ddb8 @_IO_cleanup+216. 0 :   MOV_M_I : limm   t1d, 0xffffffffffffffff : IntAlu :  D=0x00000000ffffffff  flags=(IsInteger|IsMicroop|IsDelayedCommit|IsFirstMicroop)
458816391: board.processor.cores.core: A0 T0 : 0x40ddb8 @_IO_cleanup+216. 1 :   MOV_M_I : st   t1d, DS:[rbx + 0xc0] : MemWrite :  D=0x00000000ffffffff A=0x6b25e0  flags=(IsInteger|IsStore|IsMicroop|IsLastMicroop)
458886321: board.processor.cores.core: A0 T0 : 0x40ddc2 @_IO_cleanup+226    : mov	rbx, DS:[rbx + 0x68]  
458886321: board.processor.cores.core: A0 T0 : 0x40ddc2 @_IO_cleanup+226. 0 :   MOV_R_M : ld   rbx, DS:[rbx + 0x68] : MemRead :  D=0x0000000000000000 A=0x6b2588  flags=(IsInteger|IsLoad|IsMicroop|IsLastMicroop|IsFirstMicroop)
459013194: board.processor.cores.core: A0 T0 : 0x40ddc6 @_IO_cleanup+230    : test	rbx                  
459013194: board.processor.cores.core: A0 T0 : 0x40ddc6 @_IO_cleanup+230. 0 :   TEST_R_R : and   t0, rbx, rbx : IntAlu :  D=0x0000000000000000  flags=(IsInteger|IsMicroop|IsLastMicroop|IsFirstMicroop)
459055485: board.processor.cores.core: A0 T0 : 0x40ddc9 @_IO_cleanup+233    : jz	0x65                   
459055485: board.processor.cores.core: A0 T0 : 0x40ddc9 @_IO_cleanup+233. 0 :   JZ_I : rdip   t1, t1     : IntAlu :  D=0x000000000040ddcb  flags=(IsInteger|IsMicroop|IsDelayedCommit|IsFirstMicroop)
459055485: board.processor.cores.core: A0 T0 : 0x40ddc9 @_IO_cleanup+233. 1 :   JZ_I : limm   t2, 0x65   : IntAlu :  D=0x0000000000000065  flags=(IsInteger|IsMicroop|IsDelayedCommit)
459055485: board.processor.cores.core: A0 T0 : 0x40ddc9 @_IO_cleanup+233. 2 :   JZ_I : wrip   t1, t2     : IntAlu :   flags=(IsInteger|IsControl|IsDirectControl|IsCondControl|IsMicroop|IsLastMicroop)
459097776: board.processor.cores.core: A0 T0 : 0x40de30 @_IO_cleanup+336    : add	rsp, 0x8              
459097776: board.processor.cores.core: A0 T0 : 0x40de30 @_IO_cleanup+336. 0 :   ADD_R_I : limm   t1, 0x8 : IntAlu :  D=0x0000000000000008  flags=(IsInteger|IsMicroop|IsDelayedCommit|IsFirstMicroop)
459097776: board.processor.cores.core: A0 T0 : 0x40de30 @_IO_cleanup+336. 1 :   ADD_R_I : add   rsp, rsp, t1 : IntAlu :  D=0x0000000000000000  flags=(IsInteger|IsMicroop|IsLastMicroop)
459140067: board.processor.cores.core: A0 T0 : 0x40de34 @_IO_cleanup+340    : mov	r14d                  
459140067: board.processor.cores.core: A0 T0 : 0x40de34 @_IO_cleanup+340. 0 :   MOV_R_R : mov   eax, eax, r14d : IntAlu :  D=0x0000000000000000  flags=(IsInteger|IsMicroop|IsLastMicroop|IsFirstMicroop)
459182358: board.processor.cores.core: A0 T0 : 0x40de37 @_IO_cleanup+343    : pop	rbx                   
459182358: board.processor.cores.core: A0 T0 : 0x40de37 @_IO_cleanup+343. 0 :   POP_R : ld   t1, SS:[t0 + rsp] : MemRead :  D=0x0000000000000000 A=0x7fffffffec88  flags=(IsInteger|IsLoad|IsMicroop|IsDelayedCommit|IsFirstMicroop)
459224649: board.processor.cores.core: A0 T0 : 0x40de37 @_IO_cleanup+343. 1 :   POP_R : addi   rsp, rsp, 0x8 : IntAlu :  D=0x00007fffffffec90  flags=(IsInteger|IsMicroop|IsDelayedCommit)
459224649: board.processor.cores.core: A0 T0 : 0x40de37 @_IO_cleanup+343. 2 :   POP_R : mov   rbx, rbx, t1 : IntAlu :  D=0x0000000000000000  flags=(IsInteger|IsMicroop|IsLastMicroop)
459266940: board.processor.cores.core: A0 T0 : 0x40de38 @_IO_cleanup+344    : pop	rbp                   
459266940: board.processor.cores.core: A0 T0 : 0x40de38 @_IO_cleanup+344. 0 :   POP_R : ld   t1, SS:[t0 + rsp] : MemRead :  D=0x00000000004a6548 A=0x7fffffffec90  flags=(IsInteger|IsLoad|IsMicroop|IsDelayedCommit|IsFirstMicroop)
459309231: board.processor.cores.core: A0 T0 : 0x40de38 @_IO_cleanup+344. 1 :   POP_R : addi   rsp, rsp, 0x8 : IntAlu :  D=0x00007fffffffec98  flags=(IsInteger|IsMicroop|IsDelayedCommit)
459309231: board.processor.cores.core: A0 T0 : 0x40de38 @_IO_cleanup+344. 2 :   POP_R : mov   rbp, rbp, t1 : IntAlu :  D=0x00000000004a6548  flags=(IsInteger|IsMicroop|IsLastMicroop)
459351522: board.processor.cores.core: A0 T0 : 0x40de39 @_IO_cleanup+345    : pop	r12                   
459351522: board.processor.cores.core: A0 T0 : 0x40de39 @_IO_cleanup+345. 0 :   POP_R : ld   t1, SS:[t0 + rsp] : MemRead :  D=0x0000000000000001 A=0x7fffffffec98  flags=(IsInteger|IsLoad|IsMicroop|IsDelayedCommit|IsFirstMicroop)
459393813: board.processor.cores.core: A0 T0 : 0x40de39 @_IO_cleanup+345. 1 :   POP_R : addi   rsp, rsp, 0x8 : IntAlu :  D=0x00007fffffffeca0  flags=(IsInteger|IsMicroop|IsDelayedCommit)
459393813: board.processor.cores.core: A0 T0 : 0x40de39 @_IO_cleanup+345. 2 :   POP_R : mov   r12, r12, t1 : IntAlu :  D=0x0000000000000001  flags=(IsInteger|IsMicroop|IsLastMicroop)
459718488: board.processor.cores.core: A0 T0 : 0x40de3b @_IO_cleanup+347    : pop	r13                   
459718488: board.processor.cores.core: A0 T0 : 0x40de3b @_IO_cleanup+347. 0 :   POP_R : ld   t1, SS:[t0 + rsp] : MemRead :  D=0x00000000006b4160 A=0x7fffffffeca0  flags=(IsInteger|IsLoad|IsMicroop|IsDelayedCommit|IsFirstMicroop)
459774432: board.processor.cores.core: A0 T0 : 0x40de3b @_IO_cleanup+347. 1 :   POP_R : addi   rsp, rsp, 0x8 : IntAlu :  D=0x00007fffffffeca8  flags=(IsInteger|IsMicroop|IsDelayedCommit)
459774432: board.processor.cores.core: A0 T0 : 0x40de3b @_IO_cleanup+347. 2 :   POP_R : mov   r13, r13, t1 : IntAlu :  D=0x00000000006b4160  flags=(IsInteger|IsMicroop|IsLastMicroop)
459816723: board.processor.cores.core: A0 T0 : 0x40de3d @_IO_cleanup+349    : pop	r14                   
459816723: board.processor.cores.core: A0 T0 : 0x40de3d @_IO_cleanup+349. 0 :   POP_R : ld   t1, SS:[t0 + rsp] : MemRead :  D=0x0000000000000000 A=0x7fffffffeca8  flags=(IsInteger|IsLoad|IsMicroop|IsDelayedCommit|IsFirstMicroop)
459830376: board.processor.cores.core: A0 T0 : 0x40de3d @_IO_cleanup+349. 1 :   POP_R : addi   rsp, rsp, 0x8 : IntAlu :  D=0x00007fffffffecb0  flags=(IsInteger|IsMicroop|IsDelayedCommit)
459830376: board.processor.cores.core: A0 T0 : 0x40de3d @_IO_cleanup+349. 2 :   POP_R : mov   r14, r14, t1 : IntAlu :  D=0x0000000000000000  flags=(IsInteger|IsMicroop|IsLastMicroop)
459914958: board.processor.cores.core: A0 T0 : 0x40de3f @_IO_cleanup+351    : pop	r15                   
459914958: board.processor.cores.core: A0 T0 : 0x40de3f @_IO_cleanup+351. 0 :   POP_R : ld   t1, SS:[t0 + rsp] : MemRead :  D=0x0000000000000000 A=0x7fffffffecb0  flags=(IsInteger|IsLoad|IsMicroop|IsDelayedCommit|IsFirstMicroop)
459957249: board.processor.cores.core: A0 T0 : 0x40de3f @_IO_cleanup+351. 1 :   POP_R : addi   rsp, rsp, 0x8 : IntAlu :  D=0x00007fffffffecb8  flags=(IsInteger|IsMicroop|IsDelayedCommit)
459957249: board.processor.cores.core: A0 T0 : 0x40de3f @_IO_cleanup+351. 2 :   POP_R : mov   r15, r15, t1 : IntAlu :  D=0x0000000000000000  flags=(IsInteger|IsMicroop|IsLastMicroop)
459999540: board.processor.cores.core: A0 T0 : 0x40de41 @_IO_cleanup+353    : ret	                      
459999540: board.processor.cores.core: A0 T0 : 0x40de41 @_IO_cleanup+353. 0 :   RET_NEAR : ld   t1, SS:[t0 + rsp] : MemRead :  D=0x0000000000406db8 A=0x7fffffffecb8  flags=(IsInteger|IsLoad|IsMicroop|IsDelayedCommit|IsFirstMicroop)
460041831: board.processor.cores.core: A0 T0 : 0x40de41 @_IO_cleanup+353. 1 :   RET_NEAR : addi   rsp, rsp, 0x8 : IntAlu :  D=0x00007fffffffecc0  flags=(IsInteger|IsMicroop|IsDelayedCommit)
460041831: board.processor.cores.core: A0 T0 : 0x40de41 @_IO_cleanup+353. 2 :   RET_NEAR : wripi   t1, 0 : IntAlu :   flags=(IsInteger|IsControl|IsIndirectControl|IsUncondControl|IsReturn|IsMicroop|IsLastMicroop)
460097775: board.processor.cores.core: A0 T0 : 0x406db8 @__run_exit_handlers+152    : add	rbp, 0x8              
460097775: board.processor.cores.core: A0 T0 : 0x406db8 @__run_exit_handlers+152. 0 :   ADD_R_I : limm   t1, 0x8 : IntAlu :  D=0x0000000000000008  flags=(IsInteger|IsMicroop|IsDelayedCommit|IsFirstMicroop)
460097775: board.processor.cores.core: A0 T0 : 0x406db8 @__run_exit_handlers+152. 1 :   ADD_R_I : add   rbp, rbp, t1 : IntAlu :  D=0x0000000000000000  flags=(IsInteger|IsMicroop|IsLastMicroop)
460182357: board.processor.cores.core: A0 T0 : 0x406dbc @__run_exit_handlers+156    : cmp	rbp, 0x4a6550         
460182357: board.processor.cores.core: A0 T0 : 0x406dbc @__run_exit_handlers+156. 0 :   CMP_R_I : limm   t1, 0x4a6550 : IntAlu :  D=0x00000000004a6550  flags=(IsInteger|IsMicroop|IsDelayedCommit|IsFirstMicroop)
460182357: board.processor.cores.core: A0 T0 : 0x406dbc @__run_exit_handlers+156. 1 :   CMP_R_I : sub   t0, rbp, t1 : IntAlu :  D=0x0000000000000000  flags=(IsInteger|IsMicroop|IsLastMicroop)
460224648: board.processor.cores.core: A0 T0 : 0x406dc3 @__run_exit_handlers+163    : jb	0xfffffffffffffff0     
460224648: board.processor.cores.core: A0 T0 : 0x406dc3 @__run_exit_handlers+163. 0 :   JB_I : rdip   t1, t1     : IntAlu :  D=0x0000000000406dc5  flags=(IsInteger|IsMicroop|IsDelayedCommit|IsFirstMicroop)
460224648: board.processor.cores.core: A0 T0 : 0x406dc3 @__run_exit_handlers+163. 1 :   JB_I : limm   t2, 0xfffffffffffffff0 : IntAlu :  D=0xfffffffffffffff0  flags=(IsInteger|IsMicroop|IsDelayedCommit)
460224648: board.processor.cores.core: A0 T0 : 0x406dc3 @__run_exit_handlers+163. 2 :   JB_I : wrip   t1, t2     : IntAlu :   flags=(IsInteger|IsControl|IsDirectControl|IsCondControl|IsMicroop|IsLastMicroop)
460266939: board.processor.cores.core: A0 T0 : 0x406dc5 @__run_exit_handlers+165    : mov	ebx                   
460266939: board.processor.cores.core: A0 T0 : 0x406dc5 @__run_exit_handlers+165. 0 :   MOV_R_R : mov   edi, edi, ebx : IntAlu :  D=0x0000000000000000  flags=(IsInteger|IsMicroop|IsLastMicroop|IsFirstMicroop)
460351521: board.processor.cores.core: A0 T0 : 0x406dc7 @__run_exit_handlers+167    : call	0x2b7e4              
460351521: board.processor.cores.core: A0 T0 : 0x406dc7 @__run_exit_handlers+167. 0 :   CALL_NEAR_I : limm   t1, 0x2b7e4 : IntAlu :  D=0x000000000002b7e4  flags=(IsInteger|IsMicroop|IsDelayedCommit|IsFirstMicroop)
460351521: board.processor.cores.core: A0 T0 : 0x406dc7 @__run_exit_handlers+167. 1 :   CALL_NEAR_I : rdip   t7, t7 : IntAlu :  D=0x0000000000406dcc  flags=(IsInteger|IsMicroop|IsDelayedCommit)
460351521: board.processor.cores.core: A0 T0 : 0x406dc7 @__run_exit_handlers+167. 2 :   CALL_NEAR_I : st   t7, SS:[rsp + 0xfffffffffffffff8] : MemWrite :  D=0x0000000000406dcc A=0x7fffffffecb8  flags=(IsInteger|IsStore|IsMicroop|IsDelayedCommit)
460365507: board.processor.cores.core: A0 T0 : 0x406dc7 @__run_exit_handlers+167. 3 :   CALL_NEAR_I : subi   rsp, rsp, 0x8 : IntAlu :  D=0x00007fffffffecb8  flags=(IsInteger|IsMicroop|IsDelayedCommit)
460365507: board.processor.cores.core: A0 T0 : 0x406dc7 @__run_exit_handlers+167. 4 :   CALL_NEAR_I : wrip   t7, t1 : IntAlu :   flags=(IsInteger|IsControl|IsDirectControl|IsUncondControl|IsCall|IsMicroop|IsLastMicroop)
460421451: board.processor.cores.core: A0 T0 : 0x4325b0 @_exit    : movsxd	rdx                
460421451: board.processor.cores.core: A0 T0 : 0x4325b0 @_exit. 0 :   MOVSXD_R_R : sexti   rdx, rdi, 0x1f : IntAlu :  D=0x0000000000000000  flags=(IsInteger|IsMicroop|IsLastMicroop|IsFirstMicroop)
460506033: board.processor.cores.core: A0 T0 : 0x4325b3 @_exit+3    : mov	r15, 0xffffffffffffffd0
460506033: board.processor.cores.core: A0 T0 : 0x4325b3 @_exit+3. 0 :   MOV_R_I : limm   r9, 0xffffffffffffffd0 : IntAlu :  D=0xffffffffffffffd0  flags=(IsInteger|IsMicroop|IsLastMicroop|IsFirstMicroop)
460548324: board.processor.cores.core: A0 T0 : 0x4325ba @_exit+10    : mov	r8d, 0xe7             
460548324: board.processor.cores.core: A0 T0 : 0x4325ba @_exit+10. 0 :   MOV_R_I : limm   r8d, 0xe7 : IntAlu :  D=0x00000000000000e7  flags=(IsInteger|IsMicroop|IsLastMicroop|IsFirstMicroop)
460590615: board.processor.cores.core: A0 T0 : 0x4325c0 @_exit+16    : mov	esi, 0x3c             
460590615: board.processor.cores.core: A0 T0 : 0x4325c0 @_exit+16. 0 :   MOV_R_I : limm   esi, 0x3c : IntAlu :  D=0x000000000000003c  flags=(IsInteger|IsMicroop|IsLastMicroop|IsFirstMicroop)
460632906: board.processor.cores.core: A0 T0 : 0x4325c5 @_exit+21    : jmp	0x19                  
460632906: board.processor.cores.core: A0 T0 : 0x4325c5 @_exit+21. 0 :   JMP_I : rdip   t1, t1    : IntAlu :  D=0x00000000004325c7  flags=(IsInteger|IsMicroop|IsDelayedCommit|IsFirstMicroop)
460632906: board.processor.cores.core: A0 T0 : 0x4325c5 @_exit+21. 1 :   JMP_I : limm   t2, 0x19  : IntAlu :  D=0x0000000000000019  flags=(IsInteger|IsMicroop|IsDelayedCommit)
460632906: board.processor.cores.core: A0 T0 : 0x4325c5 @_exit+21. 2 :   JMP_I : wrip   t1, t2    : IntAlu :   flags=(IsInteger|IsControl|IsDirectControl|IsUncondControl|IsMicroop|IsLastMicroop)
460675197: board.processor.cores.core: A0 T0 : 0x4325e0 @_exit+48    : mov	rdx                   
460675197: board.processor.cores.core: A0 T0 : 0x4325e0 @_exit+48. 0 :   MOV_R_R : mov   rdi, rdi, rdx : IntAlu :  D=0x0000000000000000  flags=(IsInteger|IsMicroop|IsLastMicroop|IsFirstMicroop)
460717488: board.processor.cores.core: A0 T0 : 0x4325e3 @_exit+51    : mov	r8d                   
460717488: board.processor.cores.core: A0 T0 : 0x4325e3 @_exit+51. 0 :   MOV_R_R : mov   eax, eax, r8d : IntAlu :  D=0x00000000000000e7  flags=(IsInteger|IsMicroop|IsLastMicroop|IsFirstMicroop)
460759779: board.processor.cores.core: A0 T0 : 0x4325e6 @_exit+54    :   syscall                  : IntAlu :   flags=()
